72
Properties=species:S:1:pos:R:3 Coordinates=T from=T ORCA-job=T opt=T pbc="F F F"
C        2.80989049      -0.00000000      -0.00000000
C        2.12195273       1.24422043       0.00669312
C        0.72879834       1.20947743       0.00653917
C        0.00000000       0.00000000       0.00000000
C        0.68752232      -1.24420626      -0.00673127
C        2.08059130      -1.20956320      -0.00656590
H        0.16085047       2.13965886       0.01156872
H        2.64829248      -2.13990512      -0.01157200
C        2.91062916       2.53942710       0.01386000
H        3.58782765       2.53497380      -0.86025072
H        3.58671327       2.52593220       0.88874720
C        2.10590018       3.84169600       0.02007255
H        1.44351580       3.87863055      -0.86442146
H        1.44224236       3.86951241       0.90393815
C        3.00107583       5.08700175       0.02717887
H        3.66627818       5.05152475       0.90994054
H        3.66776659       5.06049476      -0.85477195
C        2.21029968       6.39767349       0.03319922
H        1.56007283       6.46889527       0.92224582
H        1.56213663       6.47830713      -0.85655013
C       -0.10107851      -2.53962712      -0.01381569
H       -0.77825381      -2.53539309       0.86030442
H       -0.77704621      -2.52657980      -0.88878798
C        0.70456607      -3.84134949      -0.01979104
H        1.36829775      -3.86858935      -0.90361768
H        1.36691224      -3.87744385       0.86476483
C       -0.18871440      -5.08797306      -0.02677506
H       -0.85544674      -5.06248480       0.85517120
H       -0.85375457      -5.05384201      -0.90970742
C        0.60439568      -6.39727602      -0.03244710
H        1.25257751      -6.47662670       0.85742155
H        1.25489229      -6.46751302      -0.92139127
H        2.87924965       7.27354897       0.03861733
H       -0.06298016      -7.27435347      -0.03781612
C        4.23477597      -0.04729651      -0.00025261
C        5.45784592      -0.09283691       0.00247041
C        6.88273077      -0.14012401       0.00185502
C        7.57067626      -1.38434510      -0.00379115
C        8.96383044      -1.34959458      -0.00397178
C        9.69262116      -0.14010552       0.00112137
C        9.00509102       1.10410082       0.00678849
C        7.61202247       1.06945103       0.00699919
H        9.53178394      -2.27977656      -0.00818261
H        7.04431549       1.99979333       0.01118676
C        6.78200486      -2.67956258      -0.00946693
H        6.10577289      -2.66698742      -0.88425312
H        6.10495348      -2.67419508       0.86475313
C        7.58673848      -3.98183362      -0.01444412
H        8.25025220      -4.01057818      -0.89838812
H        8.24926724      -4.01783334       0.86998027
C        6.69156719      -5.22715006      -0.02010305
H        6.02496057      -5.19968248       0.86188194
H        6.02628048      -5.19263933      -0.90283956
C        7.48234785      -6.53782444      -0.02477137
H        8.13055060      -6.61751396       0.86503405
H        8.13253551      -6.60998477      -0.91377096
C        9.79368952       2.39953153       0.01232118
H       10.46977384       2.38748008       0.88721804
H       10.47074691       2.39430678      -0.86188485
C        8.98804236       3.70125798       0.01693304
H        8.32555227       3.73632500      -0.86755697
H        8.32445396       3.72951879       0.90083459
C        9.88131941       4.94789169       0.02234318
H       10.54644326       4.91481741       0.90525261
H       10.54796837       4.92135170      -0.85963526
C        9.08820627       6.25719839       0.02652879
H        8.43773752       6.32845810       0.91541165
H        8.43999610       6.33552204      -0.86341044
H        6.81340088      -7.41370774      -0.02923442
H        9.75557997       7.13428314       0.03086751
H       10.78249608      -0.14009835       0.00083680
H       -1.08987496       0.00000000       0.00000000
