72
Coordinates from ORCA-job opt
  C   2.80621528770107     -0.00884851402403     -0.00051781963036
  C   2.11684925097116      1.23207322276208      0.00501738074498
  C   0.71656767094937      1.18928053812329      0.00473901755512
  C   0.01826978655344     -0.01959553706392     -0.00071108396325
  C   0.68983842225652     -1.25325051549566     -0.00607396383031
  C   2.08654273897368     -1.22432377458075     -0.00587510151031
  H   0.14896537969632      2.12096997731195      0.00887451703094
  H   2.66010363302275     -2.15153874932432     -0.00989001328882
  C   2.90214335886576      2.52953689328823      0.01102359415619
  H   3.57954046777077      2.52848847180927     -0.86309040767553
  H   3.57929157644416      2.52048158671171      0.88528102080715
  C   2.09261503813286      3.82911436974919      0.01683119714962
  H   1.42959237580813      3.86329826212325     -0.86747361376049
  H   1.42898826363719      3.85509941198859      0.90095887605673
  C   2.98222819341569      5.07823760989438      0.02291664837500
  H   3.64815975338048      5.04594285411393      0.90526009012524
  H   3.64862618417546      5.05414258933004     -0.85933286487067
  C   2.18670240458966      6.38606964610742      0.02880360943986
  H   1.53667561350145      6.45549134137892      0.91819986301018
  H   1.53769282470994      6.46411810221339     -0.86061968264481
  C   -0.11610789845991     -2.54226439589139     -0.01179206629096
  H   -0.78987386519772     -2.53315669785786      0.86567428058962
  H   -0.78792584954422     -2.52666860363490     -0.89066970509415
  C   0.67384388261909     -3.85368146785491     -0.01572829603870
  H   1.33809672260229     -3.88635487089883     -0.89899774485944
  H   1.33611189965550     -3.89274810365326      0.86877713157742
  C   -0.22874094543852     -5.09315846079361     -0.02125677281349
  H   -0.89578299087167     -5.06208466646270      0.86042568800963
  H   -0.89344279537493     -5.05594265220669     -0.90446926341349
  C   0.55431376815611     -6.40859107171010     -0.02481759747022
  H   1.20164831180055     -6.49158391319386      0.86533198586609
  H   1.20452341758806     -6.48504472485210     -0.91345519861936
  H   2.85236317637981      7.26453203961626      0.03345036793860
  H   -0.11978730875311     -7.28055641362006     -0.02911705414772
  C   4.23522793155917     -0.04951334321613     -0.00068173915878
  C   5.45738673304951     -0.09047247258382      0.00185693602728
  C   6.88639719621768     -0.13119446584550      0.00171037431939
  C   7.57570322973158     -1.37214395829878     -0.00522858317402
  C   8.97598640776970     -1.32942084710427     -0.00467849289742
  C   9.67434308716308     -0.12058749605253      0.00245119058038
  C   9.00283468060678      1.11309194965837      0.00941979659064
  C   7.60612883634851      1.08423635115389      0.00884637800228
  H   9.54354342728906     -2.26113243468273     -0.00990371673484
  H   7.03261345116806      2.01147438726974      0.01397001829554
  C   6.79034734592789     -2.66956065208996     -0.01299135342738
  H   6.11419302811617     -2.65992835379343     -0.88802086734515
  H   6.11195849238078     -2.66901353638357      0.86034448874038
  C   7.59980918496797     -3.96918024646812     -0.01868714834774
  H   8.26442063437874     -3.99471400044692     -0.90208430970064
  H   8.26184227440109     -4.00389161488172      0.86634159938759
  C   6.71012934064705     -5.21824610422976     -0.02659924361462
  H   6.04222437494799     -5.19437436974648      0.85451635850595
  H   6.04571122607128     -5.18563915959193     -0.91007119114281
  C   7.50557908607980     -6.52612819152952     -0.03155878664306
  H   8.15285288911267     -6.60466495775688      0.85908531938708
  H   8.15732916068870     -6.59514801356977     -0.91972447230665
  C   9.80884891018616      2.40205067326289      0.01751274417873
  H   10.47839397189035      2.38621948008658      0.89813286672284
  H   10.48487659515338      2.39308392425024     -0.85819966097178
  C   9.01898085806138      3.71352257210688      0.01974469369894
  H   8.35884684483535      3.75270380414076     -0.86635562122527
  H   8.35260636936619      3.74617467488462      0.90140893924727
  C   9.92163938014972      4.95293293079113      0.02770160969567
  H   10.58414379307349      4.91549738046048      0.91255491948376
  H   10.59086449060180      4.92197588714506     -0.85232830607868
  C   9.13867682898140      6.26842397432636      0.02958133219815
  H   8.48604163627610      6.34459628183372      0.91646297145649
  H   8.49378855870659      6.35179660393825     -0.86230682812800
  H   6.83987045137875     -7.40454350291227     -0.03794317409770
  H   9.81282910004089      7.14033633229579      0.03604621315372
  H   10.76851235617413     -0.13620078971880      0.00263128068790
  H   -1.07590028321620     -0.00403667010484     -0.00072295387573
