47
Coordinates from ORCA-job opt
  C   2.83180613768865     -0.00623622086522     -0.00827154323106
  C   -1.31413943057201     -0.01477281166777     -0.01292858589772
  C   -0.70384083911401     -1.25995799928786     -0.01427887968410
  C   0.69929321367033     -1.20356751400742     -0.01242859914203
  C   1.40235796738938      0.02300733497266     -0.00954215215562
  C   0.70861203051195      1.26343133620938     -0.00810199680785
  C   -0.69966616102875      1.21758878574847     -0.00994241075728
  H   1.28351276050042     -2.12551529755055     -0.01336348148155
  H   -1.28509291683248      2.13871338099580     -0.00903798491810
  C   -1.50968839460375     -2.54804281884886     -0.01724210548248
  H   -2.18237798405448     -2.53020571649500     -0.89424260591000
  H   -2.18059422936225     -2.53532184420717      0.86124524989672
  C   -0.70861062324646     -3.85255480548434     -0.02171838947377
  H   -0.04537704389941     -3.88050110879798     -0.90597697040875
  H   -0.04544123377781     -3.88659966488512      0.86237692436061
  C   -1.60318636779732     -5.09774821695088     -0.02592281973003
  H   -2.26958644813482     -5.07031054082934      0.85626950445956
  H   -2.26855423521648     -5.06506598429571     -0.90871530265189
  C   -0.81164220642481     -6.40788158743520     -0.02936545888698
  H   -0.16312731342530     -6.48666831920146      0.86030470251761
  H   -0.16164896247443     -6.48108607252348     -0.91843542152864
  C   1.48396001325641      2.56670062022505     -0.00483556271387
  H   2.15995329676455      2.56280400134556      0.87027616960407
  H   2.16051511023624      2.56685256872877     -0.87953686973210
  C   0.66299903323576      3.85883141943422     -0.00213698340289
  H   0.00059058287520      3.88473289661811     -0.88717348688316
  H   -0.00088124506314      3.88010754209177      0.88191684734728
  C   1.54085360895326      5.11615937223773      0.00180584087411
  H   2.20613342686096      5.09232300484930      0.88489438754597
  H   2.20795760056571      5.09658094955458     -0.88000709716587
  C   0.73238106111555      6.41584115797860      0.00412175125770
  H   0.08108104437485      6.48119236484049      0.89285389097972
  H   0.08326474759783      6.48573114764966     -0.88586046846230
  C   4.05331034957147     -0.04118937362967     -0.00937817752322
  H   -1.48046230647232     -7.28385361225220     -0.03268693028572
  H   1.38955067000853      7.30059784710810      0.00719521886820
  C   5.48118737069119     -0.08565026742916     -0.00858569848119
  C   6.16232209280160     -1.32256294228533     -0.01225545681841
  C   7.55638565858359     -1.36127787759036     -0.01139362458833
  C   8.29734279378183     -0.17406881443617     -0.00693372857356
  C   7.63255194178809      1.05751780422756     -0.00332838221069
  C   6.23884987730981      1.10596896612074     -0.00413715870684
  H   9.38930992943987     -0.20877064395578     -0.00626951457400
  H   8.20490082059865      1.98837369439699      0.00017475474389
  H   5.58288257201571     -2.24773056165772     -0.01575884905066
  H   5.71866545797988      2.06574039272099     -0.00129574115048
  H   8.06953340133273     -2.32605362148483     -0.01426112398433
