39
Properties=species:S:1:pos:R:3 Coordinates=T from=T ORCA-job=T opt=T pbc="F F F"
C        4.02125474      -0.10555478      -0.00528758
C        2.81858540      -0.05235857       0.00004935
C       -2.81857268       0.05174462       0.00005463
C        1.39365881       0.00000000       0.00000000
C        0.71496004       1.23714731      -0.00000000
C       -0.67235821       1.20205920      -0.00021707
C       -1.39365881      -0.00000000      -0.00000000
C       -0.71482247      -1.23712525       0.00020202
C        0.67238494      -1.20222652       0.00046507
H       -1.23470689       2.12514797      -0.00088706
H        1.23454322      -2.12542028       0.00050065
C        1.50031633       2.53005151       0.00311716
H        2.14868532       2.53485273       0.88673329
C        0.69309373       3.82639693      -0.03101474
H        0.05570336       3.84508189      -0.92204165
H        0.01824476       3.86897711       0.83123458
C        1.58250505       5.07144883      -0.02765293
H        2.22392732       5.05362704       0.86021889
H        2.25787049       5.03532538      -0.88959101
C        0.79068224       6.37727214      -0.05677613
H        0.13317173       6.46177637       0.81274954
H        0.16356316       6.44067426      -0.95026758
C       -1.50031502      -2.53007195      -0.00110833
H       -2.16955006      -2.52501889       0.86666584
H       -2.16975136      -2.52213099      -0.86866815
C       -0.69312157      -3.82664773      -0.00365726
H       -0.03555229      -3.85513816      -0.87975215
H       -0.03810729      -3.85980077       0.87409801
C       -1.58259775      -5.07153951      -0.00896294
H       -2.24424241      -5.04695308       0.86394885
H       -2.23813349      -5.04235002      -0.88616952
C       -0.79053500      -6.37763151      -0.00955651
H       -0.15240119      -6.45467848       0.87499759
H       -0.14390901      -6.44878330      -0.88840889
C       -4.02114776       0.10704308      -0.00284190
H        5.08258394      -0.15329769      -0.00813242
H       -5.08251521       0.15399238      -0.00408275
H        1.45456748       7.24381114      -0.05574124
H       -1.45454080      -7.24404448      -0.01565383
