53
 g-Tensor orientation as XYZ file; He=chosen origin Ne=g1 Ar=g2 Kr=g3
C        4.055706100     -0.073370832      0.001295500
C        2.833589126     -0.006538473     -0.001788380
C       -2.844895575      0.019440820     -0.004853032
C        1.413452121      0.037491835     -0.002626314
C        0.700746280      1.295345066     -0.002276358
C       -0.721463229      1.219527219     -0.003059671
C       -1.411402534      0.007109950     -0.004114149
C       -0.698474706     -1.233396464     -0.004423404
C        0.695637550     -1.174525157     -0.003765442
H       -1.303846139      2.141152705     -0.002843956
H        1.274517092     -2.097894776     -0.004025807
C        1.376831568      2.533498201     -0.001126291
H        2.469694148      2.505631517     -0.000729572
C        0.711305619      3.877472715     -0.000581304
H        0.041481187      3.969631655     -0.880471389
H        0.037165557      3.966822445      0.876259129
C        1.701380349      5.049568588      0.003759023
H        2.358532917      4.962281998      0.888280628
H        2.362997473      4.965135084     -0.877711756
C        1.013976934      6.416297555      0.004220710
H        0.370440868      6.540984745      0.892268653
H        0.374953349      6.543853779     -0.886675048
C       -1.466172688     -2.538926653     -0.005426836
H       -2.145358332     -2.541094257      0.867611789
H       -2.144359652     -2.540371994     -0.879243353
C       -0.640808027     -3.828218604     -0.005468602
H        0.023101826     -3.849434115     -0.889318408
H        0.022055143     -3.850135118      0.879150660
C       -1.515521727     -5.087935688     -0.006484702
H       -2.182461172     -5.068245005      0.875368427
H       -2.181282211     -5.067647024     -0.889214979
C       -0.702818335     -6.385152258     -0.006382228
H       -0.053166978     -6.450604497      0.883537806
H       -0.051837453     -6.449910881     -0.895380166
C       -4.060788169      0.033376018     -0.006353269
H       -5.133101819      0.050109805     -0.008357418
H        1.748939390      7.237268823      0.007413460
H       -1.357156510     -7.271991904     -0.007215700
C        8.290695074     -0.349766568      0.011454548
C        7.669171211      0.904369626      0.011023340
C        6.278249678      1.001632229      0.007667647
C        5.479338264     -0.163533342      0.004673359
C        6.117761112     -1.424108887      0.005134578
C        7.509229629     -1.511054251      0.008499122
H        9.380813744     -0.421985540      0.014079901
H        5.506310941     -2.328411831      0.002814883
H        8.273777091      1.814554926      0.013324192
H        7.988698079     -2.492951790      0.008816616
H        5.792543877      1.979266858      0.007326615
He       0.000000000      0.000000000      0.000000000
Ne      -0.000301658     -0.000544817      0.793765568
Ar      -0.527353227      0.593264441      0.000206787
Kr      -0.593264400     -0.527352986     -0.000587420
