53
 g-Tensor orientation as XYZ file; He=chosen origin Ne=g1 Ar=g2 Kr=g3
C        4.056805952     -0.075107404      0.000986543
C        2.831074791     -0.015246852     -0.001956671
C       -2.856691131      0.022164198     -0.006721374
C        1.407980194      0.029083536     -0.002965435
C        0.697312787      1.290947946     -0.002944278
C       -0.728575561      1.222562723     -0.004345418
C       -1.420227512      0.007050824     -0.005438844
C       -0.710322889     -1.238278720     -0.005175667
C        0.687725032     -1.185075394     -0.004073328
H       -1.303317585      2.142042694     -0.004518334
H        1.259190867     -2.106066730     -0.003981998
C        1.381870505      2.529466048     -0.001368030
H        2.468254626      2.499460989     -0.000331410
C        0.717226874      3.880713832     -0.001278576
H        0.060018433      3.977203977     -0.880187116
H        0.051518595      3.973005015      0.871605495
C        1.718911566      5.050707432      0.006459227
H        2.365528844      4.963268905      0.888934065
H        2.374398240      4.967474753     -0.869873604
C        1.030428811      6.425728833      0.006250045
H        0.390877616      6.546562301      0.887945133
H        0.399676735      6.550691062     -0.881192831
C       -1.485073626     -2.545235661     -0.006098121
H       -2.155575460     -2.548390037      0.864305309
H       -2.153450084     -2.548475837     -0.878141262
C       -0.652575126     -3.836931362     -0.004992483
H        0.004232372     -3.859373281     -0.884856420
H        0.002221442     -3.859116221      0.876378142
C       -1.531600931     -5.100748626     -0.005803550
H       -2.190976546     -5.083335283      0.872095520
H       -2.188855309     -5.083688909     -0.885298737
C       -0.710777030     -6.402135312     -0.004548176
H       -0.067505625     -6.460952083      0.880720636
H       -0.065250335     -6.461227869     -0.888154499
C       -4.077021947      0.029148007     -0.008537532
H       -5.142880999      0.040087074     -0.010480800
H        1.764519959      7.237890958      0.011790869
H       -1.360545165     -7.283423209     -0.005233192
C        8.306013045     -0.328427167      0.010362843
C        7.674296782      0.927139126      0.009002754
C        6.277792542      1.016520379      0.005896330
C        5.485014918     -0.157854182      0.004124033
C        6.130667884     -1.419395622      0.005474285
C        7.527660556     -1.498777051      0.008579944
H        9.390692592     -0.394124046      0.012777609
H        5.527121343     -2.322181713      0.004079469
H        8.270944264      1.835618314      0.010356455
H        8.010834485     -2.472384642      0.009607644
H        5.788588248      1.986032535      0.004828387
He       0.000000000      0.000000000      0.000000000
Ne      -0.000566180     -0.000725719      0.793765279
Ar      -0.571525264      0.550838477      0.000095958
Kr      -0.550838195     -0.571524812     -0.000915434
