53
 g-Tensor orientation as XYZ file; He=chosen origin Ne=g1 Ar=g2 Kr=g3
C        4.055650599     -0.073547430      0.001258530
C        2.833542254     -0.006599590     -0.001852782
C       -2.844938192      0.019402509     -0.004604682
C        1.413420269      0.037578499     -0.002650119
C        0.700731918      1.295436994     -0.002273906
C       -0.721501012      1.219563254     -0.002939288
C       -1.411452891      0.007143285     -0.003953151
C       -0.698523341     -1.233354780     -0.004351729
C        0.695582044     -1.174420965     -0.003778218
H       -1.303965118      2.141140836     -0.002675942
H        1.274535505     -2.097754418     -0.004091369
C        1.376734998      2.533606186     -0.001169834
H        2.469589848      2.505777890     -0.000845702
C        0.711208618      3.877603850     -0.000569272
H        0.041246976      3.969721042     -0.880341800
H        0.037271246      3.967004912      0.876407697
C        1.701375360      5.049652974      0.003518280
H        2.358699565      4.962416143      0.887902074
H        2.362825499      4.965169139     -0.878056454
C        1.013980408      6.416413982      0.004035076
H        0.370653285      6.541161540      0.892218130
H        0.374821498      6.543927865     -0.886761564
C       -1.466096026     -2.538946466     -0.005337581
H       -2.145195047     -2.541192621      0.867755460
H       -2.144376301     -2.540390306     -0.879068658
C       -0.640630607     -3.828187663     -0.005523984
H        0.023195660     -3.849353377     -0.889420473
H        0.022302310     -3.850153031      0.879024326
C       -1.515380476     -5.087921707     -0.006537682
H       -2.182257234     -5.068236475      0.875346759
H       -2.181205471     -5.067553946     -0.889201418
C       -0.702663180     -6.385164896     -0.006557901
H       -0.052972486     -6.450616666      0.883323729
H       -0.051765834     -6.449834674     -0.895613899
C       -4.060832009      0.033275708     -0.006061752
H       -5.133143087      0.050044130     -0.008098550
H        1.748932070      7.237402382      0.007036943
H       -1.357003006     -7.272006461     -0.007389765
C        8.290610703     -0.349909187      0.011621356
C        7.669126271      0.904242433      0.011287705
C        6.278190710      1.001489072      0.007859669
C        5.479289880     -0.163665908      0.004674949
C        6.117696674     -1.424276071      0.005036464
C        7.509165730     -1.511211076      0.008484226
H        9.380725463     -0.422103769      0.014310191
H        5.506204570     -2.328550060      0.002589575
H        8.273733940      1.814420441      0.013749957
H        7.988600432     -2.493123285      0.008723078
H        5.792435049      1.979098016      0.007626352
He       0.000000000      0.000000000      0.000000000
Ne      -0.000237592     -0.000945825      0.793765213
Ar      -0.566406840      0.556100003      0.000493092
Kr      -0.556100171     -0.566406265     -0.000841365
