49
Coordinates from ORCA-job opt
  C   4.05565059897324     -0.07354743028874      0.00125853011946
  C   2.83354225405702     -0.00659958978457     -0.00185278174619
  C   -2.84493819203174      0.01940250931666     -0.00460468212184
  C   1.41342026948556      0.03757849872492     -0.00265011861510
  C   0.70073191837904      1.29543699361996     -0.00227390649271
  C   -0.72150101213364      1.21956325364604     -0.00293928832178
  C   -1.41145289140948      0.00714328472203     -0.00395315085074
  C   -0.69852334076813     -1.23335478020941     -0.00435172935830
  C   0.69558204424075     -1.17442096516301     -0.00377821836899
  H   -1.30396511826306      2.14114083606946     -0.00267594195756
  H   1.27453550510652     -2.09775441775523     -0.00409136933841
  C   1.37673499779043      2.53360618625766     -0.00116983378949
  H   2.46958984838905      2.50577789044628     -0.00084570150383
  C   0.71120861790817      3.87760385036425     -0.00056927203009
  H   0.04124697631259      3.96972104172745     -0.88034179985758
  H   0.03727124647503      3.96700491211349      0.87640769749837
  C   1.70137536009642      5.04965297377418      0.00351827974823
  H   2.35869956517723      4.96241614262531      0.88790207374326
  H   2.36282549911000      4.96516913863633     -0.87805645435316
  C   1.01398040807097      6.41641398193131      0.00403507622044
  H   0.37065328457299      6.54116153952943      0.89221812958051
  H   0.37482149795269      6.54392786477670     -0.88676156359709
  C   -1.46609602630356     -2.53894646611593     -0.00533758077115
  H   -2.14519504706010     -2.54119262096449      0.86775546043368
  H   -2.14437630090969     -2.54039030635112     -0.87906865806518
  C   -0.64063060662407     -3.82818766290697     -0.00552398439013
  H   0.02319566027569     -3.84935337700705     -0.88942047318492
  H   0.02230230998290     -3.85015303131793      0.87902432586004
  C   -1.51538047550479     -5.08792170673172     -0.00653768195436
  H   -2.18225723382290     -5.06823647543288      0.87534675944382
  H   -2.18120547050807     -5.06755394624446     -0.88920141785437
  C   -0.70266317974999     -6.38516489597572     -0.00655790105398
  H   -0.05297248553842     -6.45061666647867      0.88332372935518
  H   -0.05176583359733     -6.44983467416214     -0.89561389936041
  C   -4.06083200906062      0.03327570835684     -0.00606175175924
  H   -5.13314308675120      0.05004413012552     -0.00809855028053
  H   1.74893207040125      7.23740238199281      0.00703694284077
  H   -1.35700300553935     -7.27200646106083     -0.00738976475959
  C   8.29061070284505     -0.34990918723934      0.01162135627398
  C   7.66912627127297      0.90424243316538      0.01128770459725
  C   6.27819071032738      1.00148907216499      0.00785966921402
  C   5.47928987971634     -0.16366590807765      0.00467494859133
  C   6.11769667418200     -1.42427607071963      0.00503646384467
  C   7.50916573022613     -1.51121107566418      0.00848422644417
  H   9.38072546343371     -0.42210376934518      0.01431019058175
  H   5.50620457011297     -2.32855006009950      0.00258957453585
  H   8.27373393981811      1.81442044062284      0.01374995712616
  H   7.98860043227513     -2.49312328538803      0.00872307814877
  H   5.79243504860879      1.97909801577454      0.00762635153504
