49
Coordinates from ORCA-job opt_EPRII
  C   4.05680595242739     -0.07510740432406      0.00098654304866
  C   2.83107479127237     -0.01524685225369     -0.00195667125668
  C   -2.85669113120222      0.02216419808231     -0.00672137417194
  C   1.40798019441237      0.02908353616675     -0.00296543462317
  C   0.69731278655349      1.29094794646671     -0.00294427848105
  C   -0.72857556125832      1.22256272299798     -0.00434541753214
  C   -1.42022751184779      0.00705082427111     -0.00543884359176
  C   -0.71032288881437     -1.23827872000513     -0.00517566681173
  C   0.68772503195339     -1.18507539402051     -0.00407332823173
  H   -1.30331758542992      2.14204269407263     -0.00451833403701
  H   1.25919086743399     -2.10606672956414     -0.00398199755599
  C   1.38187050471213      2.52946604840547     -0.00136802974566
  H   2.46825462583157      2.49946098911402     -0.00033140986566
  C   0.71722687398694      3.88071383228051     -0.00127857616426
  H   0.06001843340147      3.97720397744006     -0.88018711608772
  H   0.05151859485633      3.97300501545835      0.87160549450432
  C   1.71891156633891      5.05070743222340      0.00645922656290
  H   2.36552884366164      4.96326890538697      0.88893406523825
  H   2.37439824001913      4.96747475275659     -0.86987360374103
  C   1.03042881054859      6.42572883312795      0.00625004483835
  H   0.39087761622524      6.54656230070228      0.88794513273437
  H   0.39967673526817      6.55069106179115     -0.88119283149689
  C   -1.48507362603031     -2.54523566057234     -0.00609812121416
  H   -2.15557545951935     -2.54839003667083      0.86430530934836
  H   -2.15345008408853     -2.54847583725910     -0.87814126219045
  C   -0.65257512580235     -3.83693136172661     -0.00499248262090
  H   0.00423237203755     -3.85937328133166     -0.88485642021271
  H   0.00222144223191     -3.85911622112117      0.87637814172063
  C   -1.53160093135494     -5.10074862572522     -0.00580354996255
  H   -2.19097654596240     -5.08333528326492      0.87209552032232
  H   -2.18885530899568     -5.08368890893460     -0.88529873739548
  C   -0.71077703043734     -6.40213531214710     -0.00454817564716
  H   -0.06750562544122     -6.46095208341295      0.88072063624259
  H   -0.06525033535644     -6.46122786912978     -0.88815449854478
  C   -4.07702194736265      0.02914800713835     -0.00853753242165
  H   -5.14288099918679      0.04008707413086     -0.01048079967122
  H   1.76451995905685      7.23789095811751      0.01179086936538
  H   -1.36054516522033     -7.28342320858488     -0.00523319216416
  C   8.30601304474153     -0.32842716690442      0.01036284286366
  C   7.67429678234355      0.92713912646415      0.00900275368602
  C   6.27779254221191      1.01652037879213      0.00589633008354
  C   5.48501491844960     -0.15785418224555      0.00412403273037
  C   6.13066788434629     -1.41939562221022      0.00547428521883
  C   7.52766055629039     -1.49877705138496      0.00857994352137
  H   9.39069259180739     -0.39412404622290      0.01277760854960
  H   5.52712134342626     -2.32218171343478      0.00407946891734
  H   8.27094426430694      1.83561831395387      0.01035645454839
  H   8.01083448530643     -2.47238464232452      0.00960764440915
  H   5.78858824785118      1.98603253543493      0.00482838698527
