96

  C       -6.2642420        0.3320010       -0.0000160
  C       -2.0328440        0.1395030       -0.0002570
  C       -2.6779330        1.4064860        0.0007110
  C       -4.0714620        1.4192920        0.0007520
  C       -4.8410990        0.2353650       -0.0001870
  C       -4.1964240       -1.0315910       -0.0011930
  C       -2.8029850       -1.0444930       -0.0012220
  H       -4.6073450        2.3683210        0.0015030
  H       -2.2673540       -1.9936740       -0.0019490
  C       -1.8455280        2.6740520        0.0018810
  H       -1.1690350        2.6424670       -0.8722160
  H       -1.1701380        2.6415340        0.8768050
  C       -2.6053600        4.0030310        0.0021040
  H       -3.2662600        4.0584630       -0.8825350
  H       -3.2675220        4.0575480        0.8858480
  C       -1.6682200        5.2170920        0.0034410
  H       -1.0044550        5.1630130        0.8863410
  H       -1.0029820        5.1637890       -0.8783950
  C       -2.4138210        6.5539930        0.0034320
  H       -3.0610780        6.6514550        0.8921570
  H       -3.0590180        6.6525880       -0.8866640
  C       -5.0287610       -2.2993730       -0.0022800
  H       -5.7052390       -2.2680080        0.8718280
  H       -5.7040500       -2.2673070       -0.8772860
  C       -4.2679950       -3.6278360       -0.0022680
  H       -3.6057400       -3.6817790       -0.8859760
  H       -3.6071050       -3.6824260        0.8824290
  C       -5.2032860       -4.8432780       -0.0034770
  H       -5.8686000       -4.7909920        0.8783590
  H       -5.8669360       -4.7905500       -0.8865410
  C       -4.4553060       -6.1788890       -0.0031260
  H       -3.8100470       -6.2762020        0.8870840
  H       -3.8077460       -6.2753750       -0.8917520
  C       -7.4835060        0.4235080       -0.0012600
  H       -1.7153790        7.4065520        0.0047920
  H       -5.1522160       -7.0327030       -0.0044310
  C       -8.9069590        0.5337870       -0.0012310
  C       -9.5302390        1.8011390       -0.0016810
  C      -10.9209210        1.9041100       -0.0015340
  C      -11.7155100        0.7519550       -0.0009800
  C      -11.1084360       -0.5091930       -0.0005780
  C       -9.7186020       -0.6220720       -0.0007110
  H      -12.8047410        0.8366280       -0.0008610
  H      -11.7234420       -1.4124030       -0.0001440
  H       -8.9085920        2.6984690       -0.0021150
  H       -9.2431910       -1.6047660       -0.0003760
  H      -11.3891040        2.8914340       -0.0018550
  C       -0.6104020        0.0436220       -0.0003260
  C        0.6104030       -0.0436050        0.0025770
  C        6.2642440       -0.3319550        0.0008050
  C        2.0328450       -0.1394780        0.0021440
  C        2.6779420       -1.4064570        0.0022230
  C        4.0714710       -1.4192570        0.0018480
  C        4.8411010       -0.2353240        0.0013410
  C        4.1964180        1.0316260        0.0012830
  C        2.8029790        1.0445240        0.0016880
  H        4.6073600       -2.3682830        0.0019150
  H        2.2673420        1.9937010        0.0015960
  C        1.8455420       -2.6740270        0.0025440
  H        1.1699740       -2.6424230       -0.8722740
  H        1.1692270       -2.6415330        0.8767470
  C        2.6053790       -4.0030030        0.0035570
  H        3.2673650       -4.0584430       -0.8802610
  H        3.2664550       -4.0575060        0.8881220
  C        1.6682430       -5.2170680        0.0036670
  H        1.0031230       -5.1628080        0.8855330
  H        1.0043610       -5.1639520       -0.8792030
  C        2.4138490       -6.5539650        0.0050280
  H        3.0591180       -6.6516180        0.8951760
  H        3.0610340       -6.6523640       -0.8836450
  C        5.0287530        2.2994110        0.0008180
  H        5.7041920        2.2683360        0.8757440
  H        5.7050790        2.2670590       -0.8733720
  C        4.2679840        3.6278720       -0.0005580
  H        3.6069150        3.6814410       -0.8851840
  H        3.6059070        3.6828310        0.8832200
  C        5.2032720        4.8433170       -0.0009230
  H        5.8670410        4.7916430        0.8821130
  H        5.8684660        4.7899820       -0.8827860
  C        4.4552880        6.1789250       -0.0027600
  H        3.8077910        6.2764320        0.8858010
  H        3.8099650        6.2752120       -0.8930350
  C        7.4834930       -0.4236580       -0.0010070
  H        1.7154090       -7.4065280        0.0046240
  H        5.1521960        7.0327420       -0.0024860
  C        8.9069480       -0.5339030       -0.0018120
  C        9.5302710       -1.8012330       -0.0000760
  C       10.9209570       -1.9041600       -0.0008470
  C       11.7155070       -0.7519810       -0.0033650
  C       11.1083900        0.5091470       -0.0051190
  C        9.7185530        0.6219810       -0.0043780
  H       12.8047400       -0.8366170       -0.0039690
  H       11.7233640        1.4123760       -0.0070980
  H        8.9086580       -2.6985850        0.0018910
  H        9.2431100        1.6046580       -0.0057710
  H       11.3891710       -2.8914680        0.0005210
