51
 g-Tensor orientation as XYZ file; He=chosen origin Ne=g1 Ar=g2 Kr=g3
C        2.832749893     -0.007025705     -0.008538472
C       -1.321226728     -0.009086601     -0.012933521
C       -0.711138667     -1.259620655     -0.014746660
C        0.696045597     -1.205428050     -0.012951734
C        1.400111366      0.024529702     -0.009719175
C        0.708754555      1.269203200     -0.007834193
C       -0.704170664      1.227961198     -0.009590207
H        1.274748840     -2.124003266     -0.014183443
H       -1.285016589      2.144564070     -0.008356531
C       -1.521335417     -2.550266232     -0.018222953
H       -2.184720255     -2.534794309     -0.893031519
H       -2.184689849     -2.539529046      0.856693446
C       -0.710102064     -3.855592257     -0.021700974
H       -0.053521650     -3.882624497     -0.901528895
H       -0.055086150     -3.888233841      0.859108675
C       -1.606343052     -5.107041948     -0.026446826
H       -2.265607531     -5.083451900      0.851416704
H       -2.263280548     -5.078429000     -0.905901672
C       -0.803343277     -6.419535134     -0.029157140
H       -0.161251540     -6.490161169      0.856030228
H       -0.158238326     -6.484648378     -0.912573304
C        1.488454138      2.575873466     -0.004295357
H        2.155155435      2.573760476      0.868594566
H        2.156043685      2.577927059     -0.876518583
C        0.657235604      3.868331212     -0.001653006
H        0.002419231      3.893448952     -0.882978148
H        0.000571821      3.888695667      0.878414652
C        1.536623832      5.132056498      0.002663830
H        2.193845971      5.112141597      0.882152598
H        2.196058962      5.116608832     -0.875258208
C        0.716769734      6.433947217      0.004961540
H        0.070982625      6.491216375      0.888452830
H        0.073736500      6.496094880     -0.880207964
C        4.057559562     -0.041157838     -0.009584736
H       -1.465004576     -7.291860327     -0.032997177
H        1.367006194      7.314870513      0.008399198
C        5.489295487     -0.089648256     -0.008844814
C        6.166130620     -1.333882453     -0.009627744
C        7.565133907     -1.378456911     -0.008865258
C        8.314078330     -0.189238291     -0.007345569
C        7.650717483      1.049830680     -0.006590909
C        6.251983918      1.103767439     -0.007353408
H        9.400064696     -0.227665230     -0.006766693
H        8.224046611      1.973231103     -0.005425268
H        5.585595168     -2.251668561     -0.010807120
H        5.738049218      2.060417700     -0.006803234
H        8.072254532     -2.339825629     -0.009462171
He       2.071557553     -0.032709183     -0.010470448
Ne       2.083904867      0.760958877     -0.008821485
Ar       2.865226861     -0.045058249     -0.009636594
Kr       2.072416957     -0.031073392     -0.804234109
