47
Properties=species:S:1:pos:R:3 Coordinates=T from=T ORCA-job=T opt=T pbc="F F F"
C        2.81857268      -0.05174461       0.00006308
C       -1.39365881      -0.00000000       0.00000000
C       -0.71496004      -1.23714729       0.00020202
C        0.67235821      -1.20205921      -0.00002078
C        1.39365881      -0.00000000      -0.00000000
C        0.71482247       1.23712527       0.00000000
C       -0.67238494       1.20222658       0.00026875
H        1.23470689      -2.12514809      -0.00054004
H       -1.23454322       2.12542033       0.00015358
C       -1.50031633      -2.53005097       0.00353030
H       -2.19043590      -2.51439419      -0.84737800
H       -2.14868532      -2.53470790       0.88714720
C       -0.69309373      -3.82640194      -0.03038991
H       -0.05570336      -3.84523240      -0.92141375
H       -0.01824476      -3.86884132       0.83186635
C       -1.58250505      -5.07145328      -0.02682479
H       -2.22392732      -5.05348650       0.86104411
H       -2.25787049      -5.03547058      -0.88876875
C       -0.79068224      -6.37728133      -0.05573476
H       -0.13317173      -6.46164357       0.81380471
H       -0.16356316      -6.44082935      -0.94921584
C        1.50031502       2.53007173      -0.00152148
H        2.16955006       2.52516038       0.86625351
H        2.16975136       2.52198911      -0.86907998
C        0.69312157       3.82664708      -0.00428213
H        0.03555229       3.85499445      -0.88038166
H        0.03810729       3.85994345       0.87346771
C        1.58259775       5.07153798      -0.00979109
H        2.24424241       5.04709409       0.86312470
H        2.23813349       5.04220525      -0.88699290
C        0.79053500       6.37762987      -0.01059795
H        0.15240119       6.45482128       0.87394357
H        0.14390901       6.44863814      -0.88946193
C        4.02114776      -0.10704354      -0.00282442
H       -1.45456748      -7.24382014      -0.05455836
H        1.45454080       7.24404182      -0.01683675
C        5.45114776      -0.10704354      -0.00282442
C        6.12984653      -1.34419083      -0.00262240
C        7.51716477      -1.30910275      -0.00284520
C        8.23846537      -0.10704354      -0.00282442
C        7.55962903       1.13008173      -0.00282442
C        6.17242162       1.09518304      -0.00255567
H        9.30069942      -0.10704354      -0.00282442
H        8.07349662       2.01934179      -0.00289703
H        5.61597893      -2.23345090      -0.00254979
H        5.64596033       2.03645084      -0.00244232
H        8.04362607      -2.25037055      -0.00295855
