47
Coordinates from ORCA-job opt_EPRII
  C   2.83274989260850     -0.00702570511184     -0.00853847155068
  C   -1.32122672766062     -0.00908660072103     -0.01293352057893
  C   -0.71113866730839     -1.25962065536406     -0.01474666040839
  C   0.69604559689635     -1.20542804979308     -0.01295173425888
  C   1.40011136639602      0.02452970154803     -0.00971917455508
  C   0.70875455493032      1.26920319967305     -0.00783419280613
  C   -0.70417066388103      1.22796119761950     -0.00959020721049
  H   1.27474883974118     -2.12400326596298     -0.01418344258053
  H   -1.28501658908466      2.14456407036040     -0.00835653143069
  C   -1.52133541718960     -2.55026623241149     -0.01822295294404
  H   -2.18472025481551     -2.53479430944694     -0.89303151856734
  H   -2.18468984935678     -2.53952904586573      0.85669344576729
  C   -0.71010206388768     -3.85559225673217     -0.02170097447800
  H   -0.05352165031316     -3.88262449658914     -0.90152889460914
  H   -0.05508614961954     -3.88823384144021      0.85910867451800
  C   -1.60634305204695     -5.10704194823227     -0.02644682601059
  H   -2.26560753126469     -5.08345190008454      0.85141670393611
  H   -2.26328054815466     -5.07842900017264     -0.90590167216838
  C   -0.80334327742740     -6.41953513445930     -0.02915714049765
  H   -0.16125154017195     -6.49016116892241      0.85603022801102
  H   -0.15823832596701     -6.48464837761482     -0.91257330375236
  C   1.48845413750719      2.57587346610508     -0.00429535693979
  H   2.15515543463716      2.57376047576393      0.86859456610609
  H   2.15604368536285      2.57792705856763     -0.87651858335393
  C   0.65723560397839      3.86833121231063     -0.00165300554544
  H   0.00241923143044      3.89344895156216     -0.88297814779448
  H   0.00057182109686      3.88869566693353      0.87841465215276
  C   1.53662383242258      5.13205649779516      0.00266383010252
  H   2.19384597068705      5.11214159736441      0.88215259751584
  H   2.19605896152445      5.11660883248907     -0.87525820791008
  C   0.71676973436112      6.43394721665202      0.00496154047259
  H   0.07098262496717      6.49121637514994      0.88845282950089
  H   0.07373650042845      6.49609488005140     -0.88020796365164
  C   4.05755956231719     -0.04115783766623     -0.00958473633098
  H   -1.46500457619566     -7.29186032735009     -0.03299717656647
  H   1.36700619396050      7.31487051346284      0.00839919777753
  C   5.48929548727100     -0.08964825593134     -0.00884481438862
  C   6.16613061989570     -1.33388245278757     -0.00962774428630
  C   7.56513390715139     -1.37845691142697     -0.00886525827411
  C   8.31407833022150     -0.18923829055862     -0.00734556851266
  C   7.65071748268007      1.04983067960594     -0.00659090947185
  C   6.25198391765936      1.10376743880099     -0.00735340849154
  H   9.40006469562180     -0.22766523026048     -0.00676669329213
  H   8.22404661095102      1.97323110282864     -0.00542526782222
  H   5.58559516784488     -2.25166856072492     -0.01080712033846
  H   5.73804921772352      2.06041769984903     -0.00680323395633
  H   8.07225453207122     -2.33982562886259     -0.00946217052636
