37
Properties=species:S:1:pos:R:3 Coordinates=T from=T ORCA-job=T opt=T pbc="F F F"
C       -2.81857268       0.05174462       0.00005463
C        1.39365881       0.00000000       0.00000000
C        0.71496004       1.23714731      -0.00000000
C       -0.67235821       1.20205920      -0.00021707
C       -1.39365881      -0.00000000      -0.00000000
C       -0.71482247      -1.23712525       0.00020202
C        0.67238494      -1.20222652       0.00046507
H       -1.23470689       2.12514797      -0.00088706
H        1.23454322      -2.12542028       0.00050065
C        1.50031633       2.53005151       0.00311716
H        2.19043590       2.51425578      -0.84778858
H        2.14868532       2.53485273       0.88673329
C        2.88099713      -0.26718113      -0.06953008
H        2.73602145      -0.90027640       0.81291935
H        2.77413432      -0.92365780      -0.94034970
C        4.30127825       0.30162229      -0.04756955
H        4.44800509       0.93839595      -0.92680049
H        4.41453987       0.95707297       0.82301465
C        5.38174994      -0.77751833      -0.01528174
H        5.31982046      -1.42701555      -0.89269501
H        5.28261406      -1.41126540       0.87024740
C       -1.50031502      -2.53007195      -0.00110833
H       -2.16955006      -2.52501889       0.86666584
H       -2.16975136      -2.52213099      -0.86866815
C       -0.69312157      -3.82664773      -0.00365726
H       -0.03555229      -3.85513816      -0.87975215
H       -0.03810729      -3.85980077       0.87409801
C       -1.58259775      -5.07153951      -0.00896294
H       -2.24424241      -5.04695308       0.86394885
H       -2.23813349      -5.04235002      -0.88616952
C       -0.79053500      -6.37763151      -0.00955651
H       -0.15240119      -6.45467848       0.87499759
H       -0.14390901      -6.44878330      -0.88840889
C       -4.02114776       0.10704308      -0.00284190
H       -5.08251521       0.15399238      -0.00408275
H        6.38086058      -0.33806788       0.00191563
H       -1.45454080      -7.24404448      -0.01565383
