41
 g-Tensor orientation as XYZ file; He=chosen origin Ne=g1 Ar=g2 Kr=g3
C       -2.631596667      0.129889056      0.152945661
C        1.575863752     -0.218018106     -0.504991675
C        0.963822237      1.083546151     -0.471920518
C       -0.443340410      1.138551395     -0.248119471
C       -1.220279463     -0.005180196     -0.065902254
C       -0.611009689     -1.294596184     -0.103795311
C        0.773999003     -1.347004716     -0.323994569
H       -0.932112507      2.114973024     -0.219803535
H        1.262338024     -2.323048991     -0.360687531
C        1.682286845      2.282285514     -0.654362986
H        2.755458673      2.297222888     -0.838416137
H        1.162942846      3.241729781     -0.622223721
C        3.065834264     -0.388546374     -0.698656259
H        3.262023017     -1.404532898     -1.082470370
H        3.432977268      0.306368907     -1.474054360
C        3.887514620     -0.182955374      0.591464873
H        3.688811485      0.825725390      0.993912494
H        3.528648897     -0.892623509      1.358202099
C        5.390342004     -0.369448303      0.371431234
H        5.781137441      0.351469259     -0.367553654
H        5.618741962     -1.381977642     -0.004349993
C       -1.464202088     -2.531527256      0.084085752
H       -2.003034320     -2.436934094      1.045487763
H       -2.265136750     -2.516674576     -0.678829269
C       -0.750621912     -3.885261029      0.036885918
H       -0.229467742     -4.002280683     -0.931185636
H        0.033199407     -3.924469460      0.815700093
C       -1.711359316     -5.064692728      0.232430088
H       -2.238009742     -4.948280735      1.197733161
H       -2.495639348     -5.026357891     -0.546048378
C       -1.012746582     -6.426102366      0.189580043
H       -0.246895487     -6.508810912      0.980041363
H       -0.505960978     -6.586065421     -0.777902351
C       -3.826625612      0.249482410      0.342032398
H       -4.879280356      0.361415692      0.513223901
H        5.954179523     -0.226136058      1.307646320
H       -1.728335857     -7.252291586      0.331363446
He       0.000000000      0.000000000      0.000000000
Ne       0.175667591      0.100108863      0.767582750
Ar       0.773291332      0.012901853     -0.178656718
Kr      -0.035008261      0.787321994     -0.094671347
