37
Coordinates from ORCA-job opt
  C   -2.63159666730620      0.12988905616698      0.15294566099700
  C   1.57586375161585     -0.21801810619766     -0.50499167498995
  C   0.96382223689386      1.08354615054675     -0.47192051815246
  C   -0.44334040972806      1.13855139467854     -0.24811947053502
  C   -1.22027946292968     -0.00518019568606     -0.06590225388088
  C   -0.61100968893211     -1.29459618397968     -0.10379531069105
  C   0.77399900347221     -1.34700471624525     -0.32399456926763
  H   -0.93211250722292      2.11497302398204     -0.21980353523416
  H   1.26233802353316     -2.32304899143525     -0.36068753138504
  C   1.68228684531023      2.28228551437537     -0.65436298646973
  H   2.75545867311054      2.29722288845761     -0.83841613679468
  H   1.16294284567926      3.24172978097087     -0.62222372057837
  C   3.06583426356972     -0.38854637439843     -0.69865625917973
  H   3.26202301683093     -1.40453289768001     -1.08247037022510
  H   3.43297726800036      0.30636890686187     -1.47405436005878
  C   3.88751461974905     -0.18295537376415      0.59146487326109
  H   3.68881148463253      0.82572538962102      0.99391249443130
  H   3.52864889719503     -0.89262350895547      1.35820209945795
  C   5.39034200354434     -0.36944830258919      0.37143123399372
  H   5.78113744137059      0.35146925898383     -0.36755365406148
  H   5.61874196150971     -1.38197764204348     -0.00434999278074
  C   -1.46420208844177     -2.53152725584923      0.08408575242323
  H   -2.00303432004946     -2.43693409402536      1.04548776295326
  H   -2.26513675041295     -2.51667457565688     -0.67882926910925
  C   -0.75062191167112     -3.88526102891017      0.03688591796319
  H   -0.22946774175904     -4.00228068280941     -0.93118563557702
  H   0.03319940665821     -3.92446945978264      0.81570009300252
  C   -1.71135931599479     -5.06469272848057      0.23243008822188
  H   -2.23800974176222     -4.94828073475226      1.19773316071031
  H   -2.49563934778305     -5.02635789064773     -0.54604837809961
  C   -1.01274658190906     -6.42610236558822      0.18958004251563
  H   -0.24689548662369     -6.50881091206719      0.98004136302532
  H   -0.50596097822820     -6.58606542064472     -0.77790235137958
  C   -3.82662561210421      0.24948241016275      0.34203239837912
  H   -4.87928035550532      0.36141569222791      0.51322390119413
  H   5.95417952257662     -0.22613605843886      1.30764631955193
  H   -1.72833585688842     -7.25229158640758      0.33136344636870
