36
Coordinates from ORCA-job BDE
  C   4.21798589803812     -0.07710231400646      0.00183306961793
  C   2.84243327648934     -0.00070012411437      0.00010232656810
  C   2.13450921961995      1.26589258631537     -0.00391242443405
  C   0.74142453548331      1.21118003314322     -0.00444744231175
  C   0.03881635843401     -0.00953139177007     -0.00083512144056
  C   0.71931264599679     -1.25438296778597      0.00310982889086
  C   2.11056337759019     -1.25078483890910      0.00309801127330
  H   0.17547429909572      2.13769406765779     -0.00752656708599
  H   2.67129081403514     -2.17849188539195      0.00569680811666
  C   2.94915193891205      2.54927449310236     -0.00765560148554
  H   3.61431748381174      2.53351091321157     -0.88359897765140
  H   3.61669409825646      2.53689219314315      0.86656323801139
  C   2.15261885915453      3.86378975475493     -0.00922200354223
  H   1.49712796622627      3.89978979579213     -0.88946668501820
  H   1.49946046403341      3.90324467586090      0.87261162916540
  C   3.06438396787218      5.10427213245176     -0.01295438239925
  H   3.72325979180278      5.07182598866570      0.86477575925837
  H   3.72083528042056      5.06829724077041     -0.89236327564775
  C   2.27764348910222      6.42642336779423     -0.01456057702304
  H   1.63669266981591      6.50468271407630      0.87085961814930
  H   1.63386960947497      6.50081810644356     -0.89826457389539
  C   -0.10139420181145     -2.53969596165013      0.00690021936535
  H   -0.76431477429855     -2.51673056783756      0.88302575614030
  H   -0.76563011912721     -2.52108072411341     -0.86832330742565
  C   0.68208769402148     -3.86150774171506      0.00962017227464
  H   1.33582468022386     -3.90744238466707     -0.87154052598212
  H   1.33745324955959     -3.90290106646517      0.88979166828810
  C   -0.23907538143708     -5.09483108262712      0.01372956066283
  H   -0.89554211690484     -5.05358677405722      0.89315617635719
  H   -0.89734272769300     -5.05813405077400     -0.86455221874041
  C   0.53722782717609     -6.42323050322750      0.01640800401910
  H   1.18028194760914     -6.50174607769076      0.90017497265353
  H   1.17807678588829     -6.50663631050950     -0.86851259352134
  H   2.95077525376247      7.28985721038997     -0.01751693007966
  H   -0.14235545138700     -7.28163724293611      0.01962612832935
  H   -1.04872139924744      0.00154598667520     -0.00123780945736
