67
 g-Tensor orientation as XYZ file; He=chosen origin Ne=g1 Ar=g2 Kr=g3
C       12.372489075     -0.025693838     -0.003888528
C       11.145150072     -0.063214538     -0.002922169
C        5.462565114     -0.006914179     -0.000347425
C        9.723233012     -0.084547305     -0.002709600
C        8.991612251     -1.334936747     -0.006043726
C        7.568096126     -1.243467486     -0.004816243
C        6.893004216     -0.016324663     -0.001072020
C        7.626848526      1.217846155      0.001814918
C        9.022388287      1.141946880      0.000985317
H        6.979314157     -2.154004074     -0.007037262
H        9.609097410      2.053376316      0.003244313
C        9.656443994     -2.584160853     -0.010623066
H       10.743169293     -2.571698892     -0.011789858
C        8.970917598     -3.924774823     -0.013973098
H        8.311312695     -4.012213017      0.864082708
H        8.304814342     -4.004598687     -0.887803654
C        9.953853298     -5.110549978     -0.022881265
H       10.602571119     -5.031956557     -0.904621624
H       10.609736747     -5.039379600      0.854188510
C        9.243242732     -6.474227389     -0.025746626
H        8.602628004     -6.583207972     -0.908211363
H        8.610015767     -6.590784028      0.861075076
C        6.874312289      2.537487657      0.005733731
H        6.204451513      2.553006870     -0.865237162
H        6.206906613      2.549284746      0.878660838
C        7.726669404      3.816139167      0.007239392
H        8.383785736      3.826555705      0.887030557
H        8.381499640      3.830051846     -0.874212586
C        6.866889233      5.093260240      0.010916338
H        6.207410885      5.087681107     -0.867152268
H        6.209834092      5.084269222      0.890771641
C        7.707141003      6.382065163      0.012271340
H        8.350873677      6.433206095     -0.873088422
H        8.353722524      6.429474371      0.895760155
C        4.236865641      0.003381970      0.000852782
H        9.964185661     -7.297992358     -0.032278672
H        7.070769876      7.273014353      0.015171928
C        2.807402548      0.008083673      0.001449695
C        2.080608660     -1.208579312      0.000891532
C        0.685809156     -1.204208394      0.001357782
C       -0.030286493      0.016401441      0.002393978
C        0.692949536      1.232841424      0.002975862
C        2.087721734      1.228899937      0.002522275
H       -3.751620224      0.027739293      0.003501542
H        0.149364265      2.172612817      0.003768109
H        2.623628578     -2.148641726      0.000084804
H        2.635779730      2.165988098      0.002951627
H        0.136645153     -2.140732271      0.000917131
C       13.798774545      0.029931174     -0.004164453
C       14.572712896     -1.158309558     -0.005597461
C       15.965943172     -1.100728856     -0.005684871
C       16.635454259      0.146380791     -0.004360677
C       15.865939750      1.334445863     -0.002980654
C       14.472740968      1.277822078     -0.002884073
H       20.353445574      0.300447543     -0.004354533
H       16.373507282      2.294185150     -0.001976530
H       14.067079691     -2.118971250     -0.006570422
H       13.889053809      2.193181195     -0.001801426
H       16.550261011     -2.015758726     -0.006745693
C       18.068873575      0.205328981     -0.004397085
C       19.288393907      0.255839251     -0.004358513
C       -1.465182536      0.020681277      0.002825564
C       -2.685610769      0.024498496      0.003189922
He       8.318147136      0.022275073     -0.002247213
Ne       8.318483540      0.019835377      0.791514779
Ar       7.674289997     -0.441956354     -0.003401196
Kr       8.782379875     -0.621578478     -0.004422899
