63
Properties=species:S:1:pos:R:3 Coordinates=T from=T ORCA-job=T opt=T pbc="F F F"
C       12.36284987      -0.00586237      -0.00491107
C       11.14617209      -0.04750825      -0.00262420
C        5.46662832       0.00122583      -0.00147544
C        9.71890011      -0.07094926      -0.00227292
C        8.99390603      -1.31851235      -0.00564407
C        7.57403121      -1.22703156      -0.00526533
C        6.89552439      -0.00484868      -0.00170258
C        7.62633741       1.22568447       0.00170394
C        9.02073464       1.14899870       0.00137078
H        6.98253883      -2.14271599      -0.00778698
H        9.61097405       2.06515286       0.00394257
C        9.66029200      -2.56465762      -0.00914084
H       10.75373210      -2.54704653      -0.00899468
C        8.98031433      -3.90077822      -0.01280018
H        8.30759730      -3.98684808       0.86585763
H        8.30600845      -3.98125489      -0.89075411
C        9.95677941      -5.08367929      -0.01744053
H       10.61639662      -5.00193198      -0.90099442
H       10.61807147      -5.00751088       0.86536481
C        9.25462649      -6.44247255      -0.02106554
H        8.61078100      -6.55903915      -0.91023084
H        8.61239401      -6.56461399       0.86851645
C        6.87626715       2.54154549       0.00551945
H        6.19820082       2.55528989      -0.86891279
H        6.19820589       2.55023043       0.88002003
C        7.71886403       3.81956605       0.00918564
H        8.38274311       3.82919631       0.89373910
H        8.38254326       3.83438913      -0.87544829
C        6.86238642       5.09107267       0.01302354
H        6.19552004       5.08360628      -0.86970216
H        6.19609547       5.07864599       0.89612706
C        7.69314249       6.37621696       0.01636880
H        8.34428871       6.43510122      -0.87315115
H        8.34498762       6.43002220       0.90569976
C        4.24458726       0.00055731      -0.00005281
H        9.98100189      -7.27091551      -0.02432830
H        7.05141105       7.27204255       0.01918286
C        2.81633847       0.00000000       0.00000000
C        2.09744732      -1.21525357      -0.00286440
C        0.70290406      -1.21017829      -0.00288324
C        0.00000000       0.00000000       0.00000000
C        0.70277461       1.21033956       0.00293319
C        2.09709172       1.21523194       0.00296624
H       -3.74368718      -0.00011076      -0.00003020
H        0.16002672       2.15841920       0.00520111
H        2.64806533      -2.15754958      -0.00509544
H        2.64729490       2.15814796       0.00524708
H        0.15932102      -2.15806351      -0.00515912
C       13.79025499       0.04321306      -0.00598313
C       14.55094023      -1.14632485      -0.00936602
C       15.94446453      -1.09279191      -0.01031585
C       16.60489174       0.14108183      -0.00798777
C       15.86048399       1.32626913      -0.00470833
C       14.46683934       1.28270564      -0.00372583
H       20.34792254       0.17894397      -0.00873589
H       16.36995938       2.29263704      -0.00288795
H       14.03339847      -2.10718600      -0.01119038
H       13.88420347       2.20593272      -0.00116479
H       16.52065693      -2.02121516      -0.01290059
C       18.03380074       0.14108183      -0.00798777
C       19.25584281       0.14108183      -0.00798777
C       -1.42890900       0.00000000       0.00000000
C       -2.65095107       0.00000000       0.00000000
