63
Coordinates from ORCA-job opt_cc-pVDZ
  C   12.36746636184206     -0.02725357619236     -0.00427065509396
  C   11.14353870785617     -0.06929905497607     -0.00303985836999
  C   5.47013078858641     -0.00066247604278     -0.00081475915328
  C   9.72452562948492     -0.08943653827689     -0.00267838205413
  C   8.99049943288628     -1.33572318530424     -0.00621305912129
  C   7.57064090342463     -1.23682726770089     -0.00528350746874
  C   6.89765723932266     -0.01228251228384     -0.00134656931942
  C   7.63458204704046      1.21694024302468      0.00200427304066
  C   9.02625603690941      1.13500172227878      0.00125972644929
  H   6.97428341116438     -2.14942733595282     -0.00782750925967
  H   9.62018723350099      2.04880488182525      0.00376280758355
  C   9.64654405709426     -2.58469916065941     -0.01051288036236
  H   10.73969074996580     -2.57482508944887     -0.01122446022183
  C   8.96000982025718     -3.91786519041215     -0.01428539442156
  H   8.28772719008610     -4.00076619946957      0.86462791139576
  H   8.28566930934316     -3.99475487482852     -0.89216118835701
  C   9.93139421557227     -5.10558566353072     -0.01953949954288
  H   10.59073263016097     -5.02721082392499     -0.90324700868527
  H   10.59318943454829     -5.03305408115607      0.86283069005288
  C   9.22231861830190     -6.46112372958907     -0.02306188127450
  H   8.57784695732041     -6.57413192759143     -0.91199363382672
  H   8.58045806446073     -6.58012301335253      0.86697678148981
  C   6.88902160505403      2.53494072391765      0.00628222625530
  H   6.21001210370157      2.54977854037974     -0.86692379353003
  H   6.21261997737136      2.54560722975936      0.88159155463235
  C   7.73436828091285      3.81126171930498      0.00808173547253
  H   8.39886897026410      3.82054437670958      0.89161895354034
  H   8.39677916139709      3.82433402525708     -0.87698122580894
  C   6.87887414967319      5.08415298209336      0.01185728326756
  H   6.21142370617223      5.07621012270257     -0.86987710198711
  H   6.21355004775434      5.07243471040307      0.89515719721302
  C   7.71087004460314      6.36899251686004      0.01361445711583
  H   8.36086847065612      6.42645083625727     -0.87655200411170
  H   8.36321230609494      6.42250602245282      0.90230964312818
  C   4.24760044560748      0.00480029103311      0.00026725645610
  H   9.94428625675960     -7.29346050836410     -0.02693194960094
  H   7.06982545048818      7.26543205522982      0.01644892159347
  C   2.82197408751128      0.00656398531198      0.00067509196739
  C   2.09771683841812     -1.20664909946348     -0.00135440220911
  C   0.70760561684881     -1.20452455074956     -0.00104816875625
  C   -0.01071343676926      0.01005077092308      0.00130986364322
  C   0.71058586425958      1.22293591043281      0.00336931915469
  C   2.10060381599107      1.22153155796115      0.00306839353744
  H   -3.72956352509832      0.01572113574784      0.00204624302637
  H   0.16379535299298      2.16753352691856      0.00520033201494
  H   2.64347098999522     -2.15178649190792     -0.00319182720454
  H   2.64840737943323      2.16550671746103      0.00466026174529
  H   0.15854574347812     -2.14779815178673     -0.00264397286034
  C   13.78969033131911      0.03150355876397     -0.00482232735747
  C   14.56584240759015     -1.15030982711245     -0.00782291514528
  C   15.95424310511519     -1.08961580912695     -0.00829118240271
  C   16.62126470424879      0.15418532789768     -0.00580582561195
  C   15.84903244512326      1.33564807229866     -0.00286424504698
  C   14.46068591655983      1.27621952521490     -0.00238981831396
  H   20.33636978038338      0.31718120778018     -0.00691275215127
  H   16.35574128822219      2.30236879438697     -0.00094786351630
  H   14.06163424619776     -2.11827778687194     -0.00974632644955
  H   13.87358678682766      2.19624803094663     -0.00010373355787
  H   16.54233280711362     -2.00909412532180     -0.01058241183552
  C   18.05044737435976      0.21642376508495     -0.00627179828550
  C   19.26494970528329      0.26953019221181     -0.00659421378050
  C   -1.44151404550615      0.01200036925617      0.00159644724396
  C   -2.65705399553858      0.01400187331064      0.00183907503640
