63
Coordinates from ORCA-job opt_EPRII
  C   12.37248907500967     -0.02569383784733     -0.00388852790663
  C   11.14515007230471     -0.06321453760983     -0.00292216854862
  C   5.46256511433729     -0.00691417876542     -0.00034742502002
  C   9.72323301156588     -0.08454730517823     -0.00270960044580
  C   8.99161225109489     -1.33493674709874     -0.00604372600722
  C   7.56809612619008     -1.24346748565497     -0.00481624310795
  C   6.89300421560604     -0.01632466272818     -0.00107201961032
  C   7.62684852582184      1.21784615530681      0.00181491843252
  C   9.02238828735521      1.14194688002041      0.00098531702855
  H   6.97931415720503     -2.15400407397208     -0.00703726174133
  H   9.60909741047704      2.05337631552608      0.00324431344319
  C   9.65644399372362     -2.58416085287705     -0.01062306616394
  H   10.74316929265329     -2.57169889247369     -0.01178985761376
  C   8.97091759753532     -3.92477482255686     -0.01397309814884
  H   8.31131269455880     -4.01221301699670      0.86408270781141
  H   8.30481434237044     -4.00459868731620     -0.88780365355696
  C   9.95385329849159     -5.11054997789351     -0.02288126494205
  H   10.60257111922513     -5.03195655688765     -0.90462162358022
  H   10.60973674724745     -5.03937960007595      0.85418851001157
  C   9.24324273244435     -6.47422738934770     -0.02574662638812
  H   8.60262800435726     -6.58320797153519     -0.90821136336766
  H   8.61001576723574     -6.59078402754708      0.86107507602090
  C   6.87431228935776      2.53748765747519      0.00573373133858
  H   6.20445151268147      2.55300686955461     -0.86523716153229
  H   6.20690661255454      2.54928474581724      0.87866083768894
  C   7.72666940435408      3.81613916697815      0.00723939161397
  H   8.38378573592052      3.82655570523386      0.88703055659630
  H   8.38149964024063      3.83005184566269     -0.87421258586119
  C   6.86688923259238      5.09326024009118      0.01091633786110
  H   6.20741088484795      5.08768110737974     -0.86715226815770
  H   6.20983409172081      5.08426922242804      0.89077164093456
  C   7.70714100288569      6.38206516349141      0.01227133987093
  H   8.35087367663638      6.43320609537556     -0.87308842241501
  H   8.35372252396911      6.42947437062373      0.89576015538764
  C   4.23686564145686      0.00338197042315      0.00085278203220
  H   9.96418566081507     -7.29799235838669     -0.03227867180637
  H   7.07076987616902      7.27301435337558      0.01517192785059
  C   2.80740254804554      0.00808367326901      0.00144969512307
  C   2.08060865996644     -1.20857931248096      0.00089153195153
  C   0.68580915643292     -1.20420839414490      0.00135778210553
  C   -0.03028649297357      0.01640144077933      0.00239397761526
  C   0.69294953640447      1.23284142385644      0.00297586224052
  C   2.08772173387151      1.22889993715232      0.00252227459069
  H   -3.75162022356828      0.02773929333635      0.00350154199190
  H   0.14936426463780      2.17261281650603      0.00376810925904
  H   2.62362857832065     -2.14864172610632      0.00008480447936
  H   2.63577972970829      2.16598809848593      0.00295162672199
  H   0.13664515259515     -2.14073227067382      0.00091713060131
  C   13.79877454453612      0.02993117412169     -0.00416445300986
  C   14.57271289642306     -1.15830955802110     -0.00559746074336
  C   15.96594317197453     -1.10072885600202     -0.00568487066088
  C   16.63545425917052      0.14638079090195     -0.00436067694222
  C   15.86593974969051      1.33444586337960     -0.00298065441280
  C   14.47274096802696      1.27782207765209     -0.00288407304386
  H   20.35344557424936      0.30044754308575     -0.00435453303932
  H   16.37350728206480      2.29418514965194     -0.00197653036836
  H   14.06707969113608     -2.11897125039976     -0.00657042158613
  H   13.88905380874591      2.19318119467995     -0.00180142560047
  H   16.55026101115088     -2.01575872644441     -0.00674569302027
  C   18.06887357480421      0.20532898097367     -0.00439708489411
  C   19.28839390746330      0.25583925143113     -0.00435851299356
  C   -1.46518253639678      0.02068127720066      0.00282556389856
  C   -2.68561076949369      0.02449849579507      0.00318992173543
