50
 g-Tensor orientation as XYZ file; He=chosen origin Ne=g1 Ar=g2 Kr=g3
C        4.260857757     -0.079058846     -0.044002868
C        0.045449962     -0.014090410     -0.134841969
C        0.704770905     -1.253030860     -0.086291384
C        2.101953693     -1.235180391     -0.057795796
C        2.827943801     -0.025995066     -0.076105642
C        2.154188648      1.220083044     -0.124789242
C        0.753308203      1.188797945     -0.153318654
H        2.668497052     -2.165912287     -0.020459047
H        0.193918421      2.124592771     -0.191200775
C       -0.111958490     -2.534895459     -0.065106480
H       -0.785744491     -2.530067025     -0.942453684
H       -0.783439529     -2.503205146      0.813682197
C        0.667159059     -3.852681721     -0.045538882
H        1.334358859     -3.904331682     -0.925707466
H        1.325796979     -3.884054326      0.841938622
C       -0.246305856     -5.084114413     -0.034815786
H       -0.917017388     -5.032680798      0.843141922
H       -0.906654977     -5.055516241     -0.921606844
C        0.525018054     -6.406222803     -0.013061455
H        1.167844091     -6.480055739      0.881112983
H        1.178165325     -6.503304937     -0.897466031
C        2.952249197      2.510065494     -0.143621069
H        3.610531268      2.523573247      0.744655561
H        3.648581483      2.474855366     -1.001695989
C        2.153088892      3.815065776     -0.196858345
H        1.507145205      3.823672592     -1.094046143
H        1.473377625      3.874269735      0.673092596
C        3.051923657      5.057517056     -0.215562250
H        3.705029238      5.049993865      0.677486804
H        3.731779220      5.004054266     -1.086825051
C        2.270279966      6.375265326     -0.261869717
H        1.591531869      6.428196670      0.610745520
H        1.615679268      6.380968909     -1.154296443
C        3.165181504      7.619488265     -0.283177554
H        3.840344764      7.577562448     -1.157596202
H        3.818995814      7.623059901      0.608286713
C        2.361206973      8.944209997     -0.327268955
H        1.709406527      8.920674557     -1.220825447
H        1.689329985      8.967400946      0.551250212
C        3.214261325     10.168438631     -0.350107756
H        3.592496001     10.605925142      0.578244580
H        3.615223086     10.555065114     -1.291427124
C        5.475459158     -0.132927493     -0.017936368
H        6.546452015     -0.180591794      0.006458495
H       -0.156964003     -7.271986862     -0.005648248
H       -1.048305316      0.010961900     -0.158874821
He       0.000000000      0.000000000      0.000000000
Ne       0.658165581     -0.443268767      0.019875441
Ar       0.443427096      0.658358324     -0.000944362
Kr      -0.015957548      0.011886195      0.793516377
