50
 g-Tensor orientation as XYZ file; He=chosen origin Ne=g1 Ar=g2 Kr=g3
C        4.264293513     -0.089356119     -0.046739913
C        0.039858179     -0.014240010     -0.150041698
C        0.699300206     -1.258295316     -0.094411351
C        2.100315693     -1.245146386     -0.062229621
C        2.828460326     -0.033153536     -0.083075796
C        2.158390905      1.217771617     -0.137715029
C        0.753183601      1.191443026     -0.170922670
H        2.659673168     -2.173253572     -0.020289321
H        0.200136746      2.124007523     -0.213515003
C       -0.123623895     -2.541719754     -0.068076945
H       -0.789647621     -2.541821687     -0.942105933
H       -0.785512715     -2.508338154      0.808682006
C        0.663033894     -3.861927698     -0.043976770
H        1.320185484     -3.918002067     -0.922043148
H        1.316460816     -3.888780493      0.838180139
C       -0.254014318     -5.097940098     -0.023936466
H       -0.914094388     -5.044985833      0.852231448
H       -0.909149395     -5.077333730     -0.905137116
C        0.526247841     -6.423843125      0.003024684
H        1.166611937     -6.485555424      0.890124385
H        1.170617043     -6.519368846     -0.878152775
C        2.962635142      2.509641952     -0.157358813
H        3.613731742      2.523373930      0.726974798
H        3.647896328      2.476755320     -1.014992031
C        2.156083506      3.816731590     -0.207141295
H        1.517762270      3.828316995     -1.100663226
H        1.483852656      3.872866926      0.659453467
C        3.059388841      5.063153489     -0.221530925
H        3.704748622      5.054039723      0.667820674
H        3.731212487      5.014966925     -1.089776519
C        2.269907138      6.383535290     -0.262611166
H        1.599303411      6.431390710      0.606858326
H        1.623728268      6.392014233     -1.151635129
C        3.169729041      7.632083551     -0.278137474
H        3.836918161      7.596306628     -1.148878252
H        3.814741086      7.633800802      0.609880288
C        2.357702049      8.958960039     -0.316752287
H        1.714438002      8.940884305     -1.206718005
H        1.693041094      8.979013930      0.557274115
C        3.216719228     10.187601147     -0.333044708
H        3.585930725     10.621822304      0.591388206
H        3.609281425     10.580764543     -1.266198956
C        5.483466299     -0.138630165     -0.017029742
H        6.548052854     -0.182845741      0.010274345
H       -0.150361408     -7.284566651      0.018002388
H       -1.048241188      0.011712569     -0.177434463
He       0.000000000      0.000000000      0.000000000
Ne      -0.659404029      0.441522316     -0.017565193
Ar      -0.002757465      0.027441302      0.793286541
Kr       0.441862974      0.659066904     -0.021262471
