50
 g-Tensor orientation as XYZ file; He=chosen origin Ne=g1 Ar=g2 Kr=g3
C        4.260892883     -0.079126511     -0.043590846
C        0.045386788     -0.014079407     -0.133806946
C        0.704756938     -1.253015297     -0.085632313
C        2.101931430     -1.235147097     -0.057350255
C        2.827985277     -0.025998274     -0.075534327
C        2.154195228      1.220083511     -0.123806896
C        0.753331769      1.188758247     -0.152097245
H        2.668494717     -2.165884164     -0.020280943
H        0.193946100      2.124578578     -0.189643960
C       -0.111948626     -2.534903073     -0.064555506
H       -0.786166311     -2.529706298     -0.941570058
H       -0.783039503     -2.503561217      0.814548346
C        0.667170362     -3.852698892     -0.045898499
H        1.334017540     -3.903925257     -0.926359208
H        1.326150308     -3.884499719      0.841307642
C       -0.246311242     -5.084124061     -0.035413089
H       -0.916770983     -5.033045566      0.842757424
H       -0.906915186     -5.055142331     -0.922002344
C        0.524987857     -6.406261017     -0.014443944
H        1.168050954     -6.480500672      0.879526334
H        1.177897633     -6.502964764     -0.899065516
C        2.952208483      2.510100308     -0.142410797
H        3.610045503      2.523793821      0.746200159
H        3.648975744      2.474747129     -1.000121581
C        2.153064390      3.815083171     -0.196314370
H        1.507351210      3.823318098     -1.093673387
H        1.473135532      3.874673575      0.673437236
C        3.051950263      5.057494276     -0.215340179
H        3.705088545      5.050198869      0.677686241
H        3.731773881      5.003740008     -1.086612066
C        2.270401988      6.375297393     -0.262073743
H        1.591515215      6.428489526      0.610416193
H        1.615926095      6.380764933     -1.154593837
C        3.165360428      7.619458959     -0.283637589
H        3.840572879      7.577327072     -1.158008025
H        3.819141803      7.623303086      0.607847235
C        2.361317477      8.944123238     -0.328166477
H        1.709747021      8.920358626     -1.221881893
H        1.689242204      8.967417975      0.550197906
C        3.214355250     10.168421725     -0.351042828
H        3.591753028     10.606490869      0.577387051
H        3.614829748     10.555344550     -1.292458477
C        5.475492083     -0.133120243     -0.017705872
H        6.546486699     -0.180814349      0.006548949
H       -0.157011999     -7.272012354     -0.007232885
H       -1.048372607      0.011017680     -0.157638096
He       0.000000000      0.000000000      0.000000000
Ne      -0.659363439      0.441484170     -0.019893393
Ar      -0.004496652      0.029026981      0.793222150
Kr       0.441909267      0.659024527     -0.021611071
