46
Coordinates from ORCA-job opt
  C   4.26089288306206     -0.07912651132103     -0.04359084569106
  C   0.04538678752042     -0.01407940693047     -0.13380694573707
  C   0.70475693769355     -1.25301529651527     -0.08563231328059
  C   2.10193143027772     -1.23514709731578     -0.05735025500329
  C   2.82798527686967     -0.02599827395176     -0.07553432652185
  C   2.15419522758493      1.22008351076568     -0.12380689620838
  C   0.75333176866014      1.18875824686053     -0.15209724487006
  H   2.66849471738574     -2.16588416370395     -0.02028094283987
  H   0.19394610012478      2.12457857764151     -0.18964395963434
  C   -0.11194862557765     -2.53490307343847     -0.06455550593383
  H   -0.78616631102339     -2.52970629836963     -0.94157005802802
  H   -0.78303950256383     -2.50356121748810      0.81454834553852
  C   0.66717036213102     -3.85269889185844     -0.04589849864608
  H   1.33401754041065     -3.90392525720635     -0.92635920835023
  H   1.32615030844236     -3.88449971900055      0.84130764178562
  C   -0.24631124192510     -5.08412406064284     -0.03541308858881
  H   -0.91677098322381     -5.03304556611723      0.84275742385364
  H   -0.90691518586304     -5.05514233144388     -0.92200234415551
  C   0.52498785665458     -6.40626101747401     -0.01444394420147
  H   1.16805095437399     -6.48050067205159      0.87952633380116
  H   1.17789763273210     -6.50296476388457     -0.89906551635614
  C   2.95220848313954      2.51010030793403     -0.14241079743622
  H   3.61004550347517      2.52379382108618      0.74620015930634
  H   3.64897574412761      2.47474712923034     -1.00012158114603
  C   2.15306439004864      3.81508317103444     -0.19631436982733
  H   1.50735121010197      3.82331809840112     -1.09367338723870
  H   1.47313553182834      3.87467357539729      0.67343723566527
  C   3.05195026312365      5.05749427622479     -0.21534017870549
  H   3.70508854507501      5.05019886924919      0.67768624088157
  H   3.73177388064317      5.00374000809765     -1.08661206598598
  C   2.27040198841216      6.37529739334181     -0.26207374268004
  H   1.59151521541309      6.42848952628627      0.61041619346866
  H   1.61592609522204      6.38076493298935     -1.15459383713737
  C   3.16536042839959      7.61945895938936     -0.28363758906880
  H   3.84057287915929      7.57732707175468     -1.15800802454237
  H   3.81914180313862      7.62330308562306      0.60784723451946
  C   2.36131747705662      8.94412323754165     -0.32816647664061
  H   1.70974702125288      8.92035862631089     -1.22188189270080
  H   1.68924220431604      8.96741797521637      0.55019790642552
  C   3.21435525004803     10.16842172524287     -0.35104282818562
  H   3.59175302837934     10.60649086868717      0.57738705124412
  H   3.61482974804377     10.55534455037135     -1.29245847658095
  C   5.47549208250880     -0.13312024269250     -0.01770587223967
  H   6.54648669875598     -0.18081434894907      0.00654894874816
  H   -0.15701199859538     -7.27201235420695     -0.00723288509260
  H   -1.04837260682091      0.01101767988483     -0.15763809598282
