46
Coordinates from ORCA-job opt_cc-pVDZ
  C   4.26085775653299     -0.07905884646166     -0.04400286803567
  C   0.04544996182301     -0.01409040970857     -0.13484196890164
  C   0.70477090480119     -1.25303086042949     -0.08629138391281
  C   2.10195369295237     -1.23518039074561     -0.05779579615701
  C   2.82794380125788     -0.02599506638441     -0.07610564181859
  C   2.15418864782696      1.22008304375815     -0.12478924200811
  C   0.75330820329021      1.18879794534484     -0.15331865433237
  H   2.66849705208002     -2.16591228684571     -0.02045904657528
  H   0.19391842122118      2.12459277085488     -0.19120077473395
  C   -0.11195848956628     -2.53489545930098     -0.06510648007663
  H   -0.78574449135212     -2.53006702456306     -0.94245368389066
  H   -0.78343952944707     -2.50320514625652      0.81368219732402
  C   0.66715905862044     -3.85268172090041     -0.04553888238652
  H   1.33435885931754     -3.90433168244031     -0.92570746640457
  H   1.32579697942149     -3.88405432638004      0.84193862226830
  C   -0.24630585642159     -5.08411441282314     -0.03481578604649
  H   -0.91701738782805     -5.03268079844227      0.84314192233163
  H   -0.90665497732072     -5.05551624136494     -0.92160684406003
  C   0.52501805365954     -6.40622280335618     -0.01306145537819
  H   1.16784409101738     -6.48005573909355      0.88111298342681
  H   1.17816532538186     -6.50330493719608     -0.89746603096159
  C   2.95224919715847      2.51006549418979     -0.14362106851197
  H   3.61053126816575      2.52357324688439      0.74465556127952
  H   3.64858148279803      2.47485536574873     -1.00169598871569
  C   2.15308889169053      3.81506577628219     -0.19685834537911
  H   1.50714520547502      3.82367259157380     -1.09404614300842
  H   1.47337762509001      3.87426973504083      0.67309259637762
  C   3.05192365729691      5.05751705596395     -0.21556225001267
  H   3.70502923838664      5.04999386479895      0.67748680399006
  H   3.73177921966314      5.00405426555774     -1.08682505060873
  C   2.27027996636028      6.37526532611214     -0.26186971727373
  H   1.59153186855063      6.42819667042380      0.61074551996214
  H   1.61567926781381      6.38096890912330     -1.15429644257533
  C   3.16518150442353      7.61948826473528     -0.28317755376393
  H   3.84034476398105      7.57756244801491     -1.15759620211899
  H   3.81899581375705      7.62305990133513      0.60828671303042
  C   2.36120697319826      8.94420999718985     -0.32726895453929
  H   1.70940652696865      8.92067455672997     -1.22082544669494
  H   1.68932998525275      8.96740094563258      0.55125021157393
  C   3.21426132524433     10.16843863051368     -0.35010775640144
  H   3.59249600149456     10.60592514216604      0.57824457963725
  H   3.61522308596849     10.55506511351787     -1.29142712407273
  C   5.47545915822326     -0.13292749259477     -0.01793636783024
  H   6.54645201529377     -0.18059179369054      0.00645849494258
  H   -0.15696400349658     -7.27198686220387     -0.00564824821792
  H   -1.04830531602663      0.01096189968928     -0.15887482073900
