50
 g-Tensor orientation as XYZ file; He=chosen origin Ne=g1 Ar=g2 Kr=g3
C        4.303993215     -0.099043578     -0.019986211
C        0.095378618      0.041846533     -0.250332057
C        0.727205933     -1.205028151     -0.115213906
C        2.122929461     -1.212411006     -0.043556462
C        2.874308149     -0.020153777     -0.101380327
C        2.228091360      1.234157013     -0.236580467
C        0.828539324      1.228178255     -0.309060472
H        2.668302763     -2.150773112      0.059971938
H        0.289670342      2.170927803     -0.414344690
C       -0.115666382     -2.468406047     -0.049588634
H       -0.784199270     -2.484012671     -0.930720169
H       -0.791676496     -2.389160177      0.822892822
C        0.636246674     -3.799827211      0.026362245
H        1.309911886     -3.896981381     -0.845049082
H        1.286422430     -3.811727918      0.920477310
C       -0.301843457     -5.011707921      0.074983238
H       -0.977280494     -4.914794123      0.945461275
H       -0.955452696     -5.002514505     -0.817198726
C        0.442406617     -6.347211815      0.151026762
H        1.079450465     -6.399989629      1.050834590
H        1.097598205     -6.491214963     -0.725436417
C        3.053157877      2.505620742     -0.293992728
H        3.669350631      2.559915129      0.622763516
H        3.788281942      2.406080763     -1.113865167
C        2.286495198      3.819606694     -0.461500812
H        1.683582433      3.789096742     -1.387366354
H        1.571864268      3.952365696      0.370089781
C        3.218416362      5.039822772     -0.514111588
H        3.844016348      5.071238867      0.400108497
H        3.946452978      4.894522192     -1.346231565
C        2.505213857      6.343014435     -0.678288819
H        1.561878904      6.348292933     -1.239679218
C        3.174852152      7.653562711     -0.417868578
H        3.874748329      7.897347807     -1.251684100
H        3.824892213      7.567709986      0.475950186
C        2.204128129      8.830751116     -0.238803118
H        1.570191903      8.913845755     -1.141091572
H        1.516815545      8.605007835      0.596373833
C        2.912091054     10.163175779      0.016523017
H        3.531850169     10.118821297      0.928896205
H        3.579243909     10.430027487     -0.821537228
C        5.515728033     -0.175457009      0.048576954
H        6.584103676     -0.243307135      0.110602552
H       -0.257066228     -7.198161211      0.187741022
H        2.190724536     10.986727150      0.143833384
H       -0.996406597      0.085397835     -0.311066260
He       0.000000000      0.000000000      0.000000000
Ne      -0.298649595     -0.039975963      0.734353121
Ar       0.185309573      0.762928784      0.116893957
Kr      -0.711711280      0.215419956     -0.277714711
