50
 g-Tensor orientation as XYZ file; He=chosen origin Ne=g1 Ar=g2 Kr=g3
C        4.302806328     -0.098133727     -0.018099638
C        0.094380038      0.040825197     -0.250085910
C        0.726644012     -1.205803734     -0.114693455
C        2.122362754     -1.212548070     -0.042464319
C        2.873073523     -0.019870642     -0.100081150
C        2.226449095      1.234162327     -0.235562375
C        0.826887968      1.227636830     -0.308565851
H        2.668260164     -2.150561884      0.061344150
H        0.287878210      2.170265098     -0.413988834
C       -0.115756790     -2.469503637     -0.049397698
H       -0.784433178     -2.484995617     -0.930400821
H       -0.791472361     -2.391004577      0.823363540
C        0.636858988     -3.800618394      0.025684908
H        1.310681343     -3.896765192     -0.845717799
H        1.286960229     -3.812799107      0.919850539
C       -0.300550571     -5.013047408      0.073307496
H       -0.976194981     -4.917196133      0.943742782
H       -0.954029665     -5.003610384     -0.818966472
C        0.444481749     -6.348173647      0.148493052
H        1.081376786     -6.401245820      1.048388764
H        1.099929420     -6.491118344     -0.727951753
C        3.051057055      2.505911093     -0.292904250
H        3.668166627      2.559803024      0.623235409
H        3.785388113      2.407214003     -1.113607251
C        2.283852334      3.819751746     -0.458943311
H        1.680300061      3.789813121     -1.384400474
H        1.569824111      3.951823110      0.373297493
C        3.215453984      5.040203590     -0.511554335
H        3.842152187      5.071038654      0.401947812
H        3.943060494      4.895110918     -1.344183065
C        2.502381054      6.343513918     -0.674881684
H        1.558196949      6.349126289     -1.234730018
C        3.174479944      7.653419092     -0.417956512
H        3.872970415      7.894934122     -1.253713562
H        3.826781347      7.568284014      0.474267599
C        2.206189499      8.832604655     -0.238777924
H        1.570047895      8.914843790     -1.139583974
H        1.520707548      8.609628868      0.598667578
C        2.916989992     10.164337608      0.011967782
H        3.538968054     10.120938279      0.922876857
H        3.582458622     10.428329010     -0.828333335
C        5.514547009     -0.173962858      0.051006247
H        6.582925244     -0.241350763      0.113495645
H       -0.254487510     -7.199570613      0.184421415
H        2.197278976     10.989322658      0.139373512
H       -0.997338796      0.084217527     -0.311252410
He       2.000311475      1.488920425     -0.178119361
Ne       1.680554266      1.483327057      0.548370973
Ar       1.894770381      2.274600245     -0.218523105
Kr       1.281506516      1.376048377     -0.495362952
