59
Properties=species:S:1:pos:R:3 pbc="F F F"
C       -7.07959325      -0.00000000      -0.00000000
H       -6.83863869       0.55141991      -0.91577371
H       -7.73442524      -0.84430173      -0.25161945
H       -7.62723509       0.65440173       0.68773653
C       -5.84538681      -0.53097124       0.71211227
O       -5.91357746      -1.04151503       1.84921299
N       -4.66829957      -0.43035690       0.03998445
H       -4.59677088       0.01482888      -0.86721382
C       -3.41556081      -0.90673266       0.60611834
H       -3.36162295      -0.58113173       1.65554143
C       -3.31207180      -2.45432002       0.55843234
H       -2.37756911      -2.80417283       1.01534692
H       -4.15736893      -2.87586608       1.11415852
H       -3.34995580      -2.79892360      -0.48283041
C       -2.28531523      -0.25693620      -0.20396152
O       -2.51113553       0.29143978      -1.30555527
N       -1.04877744      -0.33600545       0.33561574
H       -0.87384384      -0.85207028       1.19239417
C        0.14963969       0.10894884      -0.36093342
H       -0.03548855       0.03481952      -1.44165733
C        0.54535041       1.57402801      -0.00000000
H        1.48025279       1.82923668      -0.52036759
H        0.73966951       1.62633551       1.08157564
C       -0.54672359       2.58329885      -0.38304438
H       -1.46863474       2.39758838       0.17732582
H       -0.76694858       2.54474721      -1.45542803
S        0.06949361       4.32289109       0.04477323
C       -1.45066889       5.29775443      -0.49197115
H       -1.22036351       6.35309683      -0.32085639
H       -1.64460250       5.12779906      -1.55544893
H       -2.31495702       5.00301157       0.11100599
C        1.28596983      -0.83649940       0.06565457
O        1.19201090      -1.50681506       1.11339057
N        2.38333923      -0.83791445      -0.72627079
H        2.45098786      -0.22298860      -1.52914918
C        3.59470593      -1.57272227      -0.39730510
H        3.52023546      -1.87356546       0.65530177
C        3.77505175      -2.84158288      -1.29519597
H        4.71924539      -3.32813099      -1.00852329
H        3.88164403      -2.50142071      -2.33514197
C        2.62250602      -3.82513066      -1.17995630
C        1.59179197      -3.83302407      -2.14002390
H        1.63196180      -3.13524108      -2.97564175
C        0.52179346      -4.73804263      -2.03555819
H       -0.26498032      -4.73409613      -2.78750224
C        0.47156330      -5.64771592      -0.96649851
H       -0.35515146      -6.35017446      -0.88408781
C        1.49575835      -5.64750625      -0.00306949
H        1.46314517      -6.34856213       0.82848891
C        2.56312330      -4.74278186      -0.11165218
H        3.35308013      -4.74777742       0.63940883
C        4.78156314      -0.62740590      -0.64208622
O        4.73898931       0.19366074      -1.57938565
N        5.85717128      -0.78371546       0.16644243
H        5.79712835      -1.42103246       0.94700231
C        7.07959325       0.00000000       0.00000000
H        7.95556860      -0.63516090       0.17073819
H        7.10074921       0.38529639      -1.02359357
H        7.10483136       0.85057350       0.69407583
