52
 g-Tensor orientation as XYZ file; He=chosen origin Ne=g1 Ar=g2 Kr=g3
C       -2.832372286      0.020293322     -0.012673782
C        2.815948322     -0.003359785     -0.008874562
C       -1.420432955      0.002452740     -0.011650740
C       -0.709374956     -1.248718580     -0.014316627
C        0.676247151     -1.190346829     -0.013098207
C        1.395990157      0.032013022     -0.009547102
C        0.690980945      1.274502673     -0.006793478
C       -0.695552300      1.234643074     -0.007922911
H        1.255523493     -2.114319688     -0.015015557
H       -1.274063844      2.157630010     -0.005969952
C       -1.489895478     -2.544872388     -0.018303869
H       -2.165019383     -2.534890203     -0.894887735
H       -2.166965409     -2.539083466      0.856813559
C       -0.678574903     -3.843149275     -0.020503165
H       -0.014664523     -3.868141714     -0.904150643
H       -0.016786937     -3.872412801      0.864608325
C       -1.565109178     -5.094475559     -0.024598310
H       -2.232310924     -5.070651000      0.856894102
H       -2.230017557     -5.066519639     -0.907703490
C       -0.764606994     -6.399271798     -0.026630059
H       -0.116222995     -6.472895612      0.863534146
H       -0.113639600     -6.468532912     -0.915256168
C        1.471272926      2.575323018     -0.002841260
H        2.146768905      2.566887574      0.872421619
H        2.148153070      2.571346838     -0.877068804
C        0.658643178      3.872512475     -0.000192228
H       -0.003507846      3.902838688     -0.885022982
H       -0.005190246      3.898229192      0.883518650
C        1.545479560      5.123770773      0.003914276
H        2.210562629      5.095343330      0.886947166
H        2.212467205      5.099764887     -0.877810539
C        0.745910738      6.429167252      0.006342634
H        0.095138011      6.498653458      0.895068227
H        0.097364921      6.503335706     -0.883632981
C        4.039702828     -0.047094495     -0.010050659
H       -1.427402209     -7.279814719     -0.029757162
H        1.409173992      7.309394317      0.009495582
C        5.464853453     -0.099872064     -0.009745090
C        6.139075381     -1.341625976     -0.011166420
C        7.532526996     -1.388474709     -0.010864908
C        8.280425107     -0.205272105     -0.009185310
C        7.623150342      1.030677915     -0.007807856
C        6.230136305      1.087990454     -0.008101727
H        9.372095897     -0.246369141     -0.008969924
H        8.201473178      1.957801006     -0.006529742
H        5.554032236     -2.263249777     -0.012462996
H        5.715791695      2.050850938     -0.007083754
H        8.040095695     -2.356142075     -0.011943055
He       0.000000000      0.000000000      0.000000000
Ne       0.107660530      0.786427542      0.002257424
Ar       0.786430419     -0.107662225      0.000453575
Kr       0.000755567      0.002175043     -0.793762473
