52
 g-Tensor orientation as XYZ file; He=chosen origin Ne=g1 Ar=g2 Kr=g3
C       -2.775357609      0.046208251     -0.011751489
C        2.820254590      0.009684723     -0.009139114
C       -1.416125539     -0.010274496     -0.011346722
C       -0.684647621     -1.267419501     -0.014385884
C        0.690489621     -1.196208087     -0.013388750
C        1.407046606      0.036196601     -0.009702279
C        0.687688672      1.279681211     -0.006696171
C       -0.690449126      1.243926125     -0.007610068
H        1.277161853     -2.115524324     -0.015523096
H       -1.268851525      2.166837017     -0.005472013
C       -1.480791528     -2.555885613     -0.018568395
H       -2.154670828     -2.540740109     -0.897146142
H       -2.157395340     -2.544715041      0.857973504
C       -0.681274938     -3.861204372     -0.020309118
H       -0.017862349     -3.890850857     -0.904058262
H       -0.020682982     -3.894869459      0.865411628
C       -1.579449743     -5.104210314     -0.024628022
H       -2.246604930     -5.074149590      0.856658564
H       -2.243575543     -5.070198398     -0.908058603
C       -0.790051452     -6.415615406     -0.026228446
H       -0.143052234     -6.494872024      0.864454039
H       -0.139497446     -6.490536209     -0.914693897
C        1.465881881      2.581608264     -0.002725891
H        2.141039687      2.571608434      0.872700079
H        2.142654560      2.575943410     -0.876938242
C        0.653075342      3.878460456     -0.000280596
H       -0.008621931      3.909115106     -0.885508387
H       -0.010403266      3.904749926      0.883750251
C        1.540606242      5.129342807      0.003728535
H        2.205492727      5.100498615      0.886927167
H        2.207478958      5.104735177     -0.878098692
C        0.741235597      6.434757047      0.005976035
H        0.090512931      6.504406671      0.894696701
H        0.093009549      6.509015553     -0.884195172
C        4.046121437     -0.034213182     -0.010003266
H       -1.460806502     -7.289935840     -0.029701107
H        1.404972197      7.314510323      0.009189940
C        5.469174875     -0.089851145     -0.009729446
C        6.140470130     -1.334126487     -0.012365730
C        7.533422269     -1.384522018     -0.012085161
C        8.284577088     -0.203109982     -0.009213391
C        7.630743775      1.034878533     -0.006618053
C        6.238241889      1.096427577     -0.006877214
H        9.376146183     -0.247118494     -0.009009411
H        8.211875625      1.960202976     -0.004378570
H        5.552871655     -2.254101729     -0.014605498
H        5.726740609      2.060809317     -0.004870348
H        8.038459676     -2.353485093     -0.014131269
He       1.881093321     -0.028495756     -0.010175645
Ne       1.944216432      0.762755933     -0.009540700
Ar       1.881135952     -0.029136119      0.783589908
Kr       2.672345263     -0.091618812     -0.010269066
