52
 g-Tensor orientation as XYZ file; He=chosen origin Ne=g1 Ar=g2 Kr=g3
C       -2.789250690      0.057936792     -0.011978440
C        2.818441187      0.003573101     -0.009293427
C       -1.424568147     -0.004673974     -0.011593357
C       -0.696249131     -1.267874343     -0.014585461
C        0.683232354     -1.201355080     -0.013534153
C        1.402083742      0.033209419     -0.009794021
C        0.686752035      1.281750956     -0.006764099
C       -0.695819935      1.252925792     -0.007818542
H        1.263197139     -2.117814760     -0.015642843
H       -1.265520297      2.174377232     -0.005747375
C       -1.496654583     -2.559416051     -0.018968617
H       -2.160989477     -2.548651768     -0.895397124
H       -2.164651461     -2.552313708      0.854714008
C       -0.685988539     -3.865098740     -0.020055941
H       -0.029347847     -3.893761237     -0.899546649
H       -0.033327158     -3.897630554      0.862264318
C       -1.584994394     -5.114929053     -0.024913722
H       -2.245027050     -5.089694068      0.852125771
H       -2.240761638     -5.085892286     -0.905031039
C       -0.783502863     -6.428224802     -0.025844213
H       -0.142715253     -6.499503010      0.860230152
H       -0.137885891     -6.495263768     -0.908737435
C        1.472247631      2.584906342     -0.002662438
H        2.138518876      2.575597654      0.870333890
H        2.140290513      2.580023317     -0.874332835
C        0.652914175      3.884569242     -0.000206580
H       -0.001101224      3.916336559     -0.881802735
H       -0.003333990      3.911681142      0.879880076
C        1.544978860      5.139532353      0.004282247
H        2.201657355      5.113464583      0.884005826
H        2.204178479      5.117973415     -0.873676464
C        0.737225106      6.448978536      0.006508515
H        0.091954742      6.512343231      0.889887168
H        0.095047392      6.517286501     -0.878754140
C        4.047570383     -0.037828469     -0.010119393
H       -1.446882132     -7.299111750     -0.029732730
H        1.395944162      7.323513463      0.010099794
C        5.474806273     -0.092406584     -0.009888351
C        6.146864314     -1.341116529     -0.011718811
C        7.544939144     -1.391233453     -0.011503620
C        8.299040514     -0.204702823     -0.009491676
C        7.641470319      1.037984887     -0.007686856
C        6.243742076      1.098933374     -0.007891518
H        9.384770975     -0.247995386     -0.009343033
H        8.219407234      1.958415958     -0.006136693
H        5.562231187     -2.256245229     -0.013273305
H        5.734127092      2.057830158     -0.006528406
H        8.048212233     -2.354540228     -0.012911190
He       0.000000000      0.000000000      0.000000000
Ne       0.072729846      0.790426654     -0.000489349
Ar      -0.000159163     -0.000476771     -0.793765653
Kr      -0.790426789      0.072729930      0.000114809
