48
Coordinates from ORCA-job opt_EPRII
  C   -2.78925069049049      0.05793679179609     -0.01197844038755
  C   2.81844118659173      0.00357310052131     -0.00929342717325
  C   -1.42456814715057     -0.00467397398207     -0.01159335727094
  C   -0.69624913058830     -1.26787434328593     -0.01458546082293
  C   0.68323235355152     -1.20135507967217     -0.01353415340657
  C   1.40208374189579      0.03320941901394     -0.00979402092000
  C   0.68675203535550      1.28175095585265     -0.00676409929304
  C   -0.69581993545012      1.25292579195548     -0.00781854190146
  H   1.26319713927880     -2.11781476018491     -0.01564284281187
  H   -1.26552029673649      2.17437723150527     -0.00574737535619
  C   -1.49665458325579     -2.55941605052012     -0.01896861657454
  H   -2.16098947651192     -2.54865176836289     -0.89539712429449
  H   -2.16465146126601     -2.55231370831295      0.85471400802172
  C   -0.68598853945595     -3.86509873987858     -0.02005594138499
  H   -0.02934784749714     -3.89376123699230     -0.89954664925397
  H   -0.03332715762855     -3.89763055412517      0.86226431791837
  C   -1.58499439388037     -5.11492905308769     -0.02491372194578
  H   -2.24502704974417     -5.08969406786061      0.85212577119028
  H   -2.24076163818578     -5.08589228619214     -0.90503103891547
  C   -0.78350286269770     -6.42822480202916     -0.02584421274102
  H   -0.14271525288358     -6.49950301015947      0.86023015194933
  H   -0.13788589065923     -6.49526376817290     -0.90873743547472
  C   1.47224763062078      2.58490634154724     -0.00266243798232
  H   2.13851887625930      2.57559765443514      0.87033389036795
  H   2.14029051296418      2.58002331711652     -0.87433283486119
  C   0.65291417456871      3.88456924220547     -0.00020657951074
  H   -0.00110122435334      3.91633655916425     -0.88180273511589
  H   -0.00333398986505      3.91168114175586      0.87988007586172
  C   1.54497886044197      5.13953235280815      0.00428224714601
  H   2.20165735510165      5.11346458252973      0.88400582583196
  H   2.20417847894816      5.11797341512236     -0.87367646446792
  C   0.73722510579672      6.44897853550891      0.00650851532572
  H   0.09195474184001      6.51234323107328      0.88988716750331
  H   0.09504739197760      6.51728650117136     -0.87875414021084
  C   4.04757038255631     -0.03782846936783     -0.01011939264802
  H   -1.44688213243806     -7.29911175026129     -0.02973273042019
  H   1.39594416201052      7.32351346348489      0.01009979401959
  C   5.47480627313509     -0.09240658413160     -0.00988835072418
  C   6.14686431353989     -1.34111652892935     -0.01171881087087
  C   7.54493914397040     -1.39123345271553     -0.01150361978437
  C   8.29904051395454     -0.20470282305514     -0.00949167633043
  C   7.64147031856497      1.03798488660564     -0.00768685566186
  C   6.24374207591058      1.09893337353943     -0.00789151843074
  H   9.38477097519768     -0.24799538643878     -0.00934303341905
  H   8.21940723449953      1.95841595779606     -0.00613669319014
  H   5.56223118700394     -2.25624522947463     -0.01327330549178
  H   5.73412709222414      2.05783015845695     -0.00652840601305
  H   8.04821223297851     -2.35454022777276     -0.01291119007355
