37
Properties=species:S:1:pos:R:3 Coordinates=T from=T ORCA-job=T opt=T pbc="F F F"
C        0.00000000       0.00000000       0.00000000
C        1.36040519      -0.00000000      -0.00000000
C        2.14344691      -1.22569082      -0.00323077
C        3.51444199      -1.09744638      -0.00264588
C        4.17921388       0.16364652       0.00080023
C        3.40884885       1.37619192       0.00399462
C        2.03338371       1.28324866       0.00349310
H        4.13877683      -1.99161189      -0.00493581
H        1.41716233       2.18134909       0.00578419
C        1.40148420      -2.54610118      -0.00714795
H        0.72729578      -2.55897722      -0.88552471
H        0.72526086      -2.56300260       0.86959575
C        2.25450643      -3.81709927      -0.00909958
H        2.91831489      -3.81920576      -0.89304619
H        2.91619002      -3.82327827       0.87642454
C        1.40871331      -5.09632489      -0.01312365
H        0.74114755      -5.09395999       0.86836152
H        0.74348521      -5.08994600      -0.89635656
C        2.25187871      -6.37382416      -0.01493182
H        2.90187567      -6.42611958       0.87555907
H        2.90471801      -6.42169996      -0.90358994
C        4.13231739       2.70930632       0.00770464
H        4.80756864       2.72737658       0.88292913
H        4.80848156       2.73171580      -0.86670969
C        3.26636840       3.97129338       0.01036499
H        2.60370559       3.97441867      -0.87466578
H        2.60263345       3.97004301       0.89459340
C        4.10119969       5.25794668       0.01408230
H        4.76697318       5.25676263       0.89708292
H        4.76825665       5.26101843      -0.86794354
C        3.24831946       6.52904624       0.01654065
H        2.59553057       6.57164842       0.90545415
H        2.59730440       6.57629694      -0.87343849
H        1.61800200      -7.27523991      -0.01818546
H        3.87495812       7.43559874       0.01953751
H        5.26794527       0.22685304       0.00110931
C       -1.36040519       0.00000000       0.00000000
