49
model to optimize
  C      5.54287743      0.00000000     -0.00000000
  C      4.50501487      0.66124141     -0.03318265
  C     -0.51832190      3.47782232     -0.17864646
  C      3.24990413      1.42537375     -0.08416102
  C      3.13811111      2.84377707     -0.11632240
  C      1.89195961      3.46369714     -0.17204989
  C      0.73356038      2.72664726     -0.14820308
  C      0.84516216      1.30859644     -0.10604974
  C      2.09169612      0.68797138     -0.07030617
  H      1.84470888      4.55525694     -0.20145379
  H      2.14378550     -0.39459551     -0.03111886
  C      4.43661213      3.29921101     -0.03748061
  H      4.64726806      2.64625978     -0.91113887
  H      4.57648082      2.70819806      0.90678654
  C      5.37074969      4.46821735     -0.04082575
  H      5.20334837      5.05234564     -0.97536892
  H      5.15487264      5.11288066      0.84303302
  C      6.78017649      3.94998779      0.01443927
  H      6.92887723      3.35360051      0.94905700
  H      6.98219160      3.30205840     -0.85956154
  C      7.70728340      5.14596617     -0.00000000
  H      7.47773566      5.78701090      0.88372478
  H      7.51757057      5.73149773     -0.93501970
  C     -0.87258384      1.44937771      0.06827850
  H     -1.09691046      2.09871037      0.94180278
  H     -1.06229667      2.03490927     -0.86674119
  C     -1.76512748      0.23331196      0.08408791
  H     -1.53416079     -0.38543009     -0.80039649
  H     -1.58044452     -0.36086002      1.01931616
  C     -3.21137360      0.66910840      0.04103430
  H     -3.43589146      1.31879355      0.92455053
  H     -3.39605656      1.26328038     -0.89419394
  C     -4.08315185     -0.43182537      0.05317956
  H     -3.98474989     -1.11461684      0.98988275
  H     -3.93143552     -1.16615895     -0.81873578
  C     -5.54287743     -0.00000000      0.00000000
  H     -5.71027875      0.58412829     -0.93454317
  H     -5.75875448      0.64466331      0.88385877
  C     -6.47198512     -1.16036592      0.00313660
  H     -6.26635906     -1.82195758     -0.87031312
  H     -6.33714630     -1.76001929      0.94761230
  C     -7.89108920     -0.66012219     -0.07169524
  H     -8.12927776     -0.01405561      0.81168701
  H     -8.04984970     -0.08101574     -1.00589587
  C     -1.54896258      4.11173921     -0.21072694
  H      6.48341636     -0.59923473      0.03007101
  H     -2.49888590      4.69600921     -0.24029496
  H      8.77858419      5.45671402      0.01871861
  H     -8.96461200     -0.96190767     -0.10447187
