49
Coordinates from ORCA-job opt
  C   3.98034553600996     -0.94979414954429      0.25444060305750
  C   3.34399612653618      0.08529609269697      0.20309772162950
  C   0.26327640165557      4.83359525028601     -0.04365716401181
  C   2.58526895789609      1.29882369384035      0.13738752629100
  C   3.23685135760398      2.55638979570059      0.05700627362246
  C   2.42964142012781      3.69325182070597     -0.00100422667832
  C   1.02240435735596      3.62004232952463      0.01643138718756
  C   0.37078719850671      2.36210019043824      0.09113833852267
  C   1.17791280298560      1.22531535953653      0.15146178194560
  H   2.88369485793415      4.68199557683690     -0.06385931767442
  H   0.72382831990574      0.23638935981098      0.21081115456415
  C   4.75195328979377      2.62277458117096      0.03726921754084
  H   5.11423516399188      1.96344190859458     -0.77246941233165
  H   5.13130694814283      2.15521965883185      0.96492345046265
  C   5.38191204860441      4.00894121752684     -0.12244570898051
  H   5.01571680731787      4.48120805368771     -1.05272637216165
  H   5.06031046289065      4.66769386488809      0.70528641701390
  C   6.91447311018749      3.95875369432573     -0.15373857563275
  H   7.28163552757497      3.48503668263810      0.77558658000268
  H   7.23931432226011      3.29766014984016     -0.97856435893141
  C   7.56001419420962      5.33694550148062     -0.31741753681854
  H   7.28401453354171      6.01056256714891      0.51221119863281
  H   7.23773502225565      5.82062530479178     -1.25568606169862
  C   -1.14439920255266      2.29494973764188      0.10031744918367
  H   -1.51052610172852      2.85696501349036      0.97958651596448
  H   -1.51805281571772      2.86719330405550     -0.76813998610491
  C   -1.77486926619483      0.89960866633082      0.09219114506148
  H   -1.40823398106006      0.33008869922934     -0.78153116457374
  H   -1.45316873799701      0.33449414078254      0.98616967120435
  C   -3.30690460771267      0.94793631161541      0.05149032919876
  H   -3.67948996938072      1.51190593771470      0.92752159699729
  H   -3.62767484178263      1.52442657240949     -0.83691291643745
  C   -3.96410109552417     -0.43640213542049      0.01983533566664
  H   -3.65471618295317     -1.01009699364172      0.91433325508581
  H   -3.57849853345338     -1.00244707407595     -0.84956645761710
  C   -5.49437419245423     -0.38892247157995     -0.04807766492021
  H   -5.80120822801752      0.19220102192037     -0.93902403147579
  H   -5.88313998032898      0.16990866224164      0.82483929196361
  C   -6.15410328962036     -1.77181751744645     -0.09743201122335
  H   -5.75847279833851     -2.33168502758115     -0.96548263387234
  H   -5.85526950023008     -2.35052736888513      0.79662763799201
  C   -7.68152466664321     -1.71162427851836     -0.18061400553141
  H   -8.10974890242110     -1.18690620599285      0.69104632348881
  H   -8.01208661632036     -1.17128039379654     -1.08465306465698
  C   -0.37195852219649      5.86923079014149     -0.09760730575545
  H   4.54178543586600     -1.86231915353860      0.30154536990117
  H   -0.93441953364970      6.78117600640987     -0.14385009243847
  H   8.65974811914980      5.26780276834540     -0.33856223016120
  H   -8.12585617602639     -2.71992963660992     -0.21417389249330
