96
Properties=species:S:1:pos:R:3 Coordinates=T from=T ORCA-job=T opt_cc-pVDZ=T pbc="F F F"
C        5.56517344       0.07975181       0.00193924
C        1.42000000       0.00000000       0.00000000
C        2.05162574      -1.23450307       0.00062949
C        3.45357690      -1.15381409       0.00144026
C        4.13544532       0.08467722       0.00154649
C        3.42047319       1.31295783       0.00109307
C        2.01320376       1.24278825       0.00023125
H        4.05382086      -2.06540966       0.00190040
H        1.41173781       2.15352715      -0.00024157
C        1.26837241      -2.53644301       0.00064456
H        0.59512073      -2.53223624      -0.87608468
H        0.59761127      -2.53369161       0.87931603
C        2.09218840      -3.82676937      -0.00147530
H        2.75542192      -3.84503586      -0.88596261
H        2.75622610      -3.84740775       0.88235843
C        1.21930311      -5.08737101      -0.00267432
H        0.55296031      -5.06964991       0.87979007
H        0.55302702      -5.06800400      -0.88515406
C        2.03357861      -6.38359286      -0.00387157
H        2.68373528      -6.44915696       0.88566073
H        2.68427019      -6.44716442      -0.89315788
C        4.17310309       2.62941049       0.00137416
H        4.84951710       2.63889774       0.87611172
H        4.84910354       2.63950800      -0.87369335
C        3.32998752       3.90722790       0.00200013
H        2.66676813       3.92009778      -0.88268981
H        2.66633836       3.91895395       0.88638052
C        4.18648543       5.17932420       0.00298114
H        4.85257716       5.16837638       0.88569056
H        4.85333437       5.16922017      -0.87916488
C        3.35610182       6.46521082       0.00325991
H        2.70433664       6.52114548       0.89227913
H        2.70546630       6.52227479      -0.88651469
C        6.78708747       0.06503099       0.00013829
H        1.38012515      -7.27108939      -0.00507393
H        3.99822472       7.36094674       0.00424321
C        8.21548865       0.04358809       0.00009520
C        8.91626545      -1.18232794       0.00006787
C       10.31078130      -1.19891277       0.00004103
C       11.03268801       0.00000000      -0.00000000
C       10.34835875       1.22085372      -0.00002203
C        8.95404653       1.24715636      -0.00000000
H       12.12507441      -0.01721447      -0.00002576
H       10.90586583       2.16067886      -0.00006373
H        8.35161459      -2.11660579       0.00008049
H        8.41870207       2.19855888      -0.00003328
H       10.83919228      -2.15541012       0.00003425
C        0.00000000       0.00000000       0.00000000
C       -1.28455671       0.00768366       0.00503011
C       -6.90597737      -0.08363233       0.00468382
C       -2.67786185       0.01009989       0.00479633
C       -3.42348540       1.24553955       0.00000000
C       -4.80598118       1.15910076       0.00033468
C       -5.49044957      -0.08553985       0.00497545
C       -4.76090388      -1.31923007       0.00977410
C       -3.38065800      -1.23587184       0.00945758
H       -5.41256972       2.06434737      -0.00312457
H       -2.77041794      -2.13845382       0.01286399
C       -2.68149036       2.56279809      -0.00509904
H       -2.00038347       2.56503742      -0.87499392
H       -2.00074684       2.57195594       0.86503922
C       -3.53110470       3.83579437      -0.01026523
H       -4.19460060       3.84310642      -0.89507134
H       -4.19452618       3.85030241       0.87451113
C       -2.67723760       5.10986450      -0.01548112
H       -2.01050926       5.10361712       0.86626942
H       -2.01085205       5.09663513      -0.89741292
C       -3.51167760       6.39297227      -0.02041320
H       -4.16238727       6.45186034       0.86930175
H       -4.16306184       6.44456935      -0.91008623
C       -5.51201333      -2.63502433       0.01477878
H       -6.18787263      -2.64134700       0.88994812
H       -6.18763241      -2.64810758      -0.86050586
C       -4.66489115      -3.91009690       0.01979770
H       -4.00164141      -3.92319502      -0.86431887
H       -4.00142191      -3.91613980       0.90382438
C       -5.51902763      -5.18382780       0.02498760
H       -6.18501544      -5.17169878       0.90788677
H       -6.18551729      -5.17854114      -0.85759917
C       -4.68409741      -6.46675596       0.02974141
H       -4.03250138      -6.51708425       0.91892152
H       -4.03341071      -6.52428095      -0.85966795
C       -8.13142773      -0.06591637       0.00238663
H       -2.87141790       7.28980396      -0.02433581
H       -5.32385424      -7.36397299       0.03370481
C       -9.55503348      -0.04411597       0.00155073
C      -10.25275284       1.18500541      -0.00302762
C      -11.64618229       1.20106065      -0.00375772
C      -12.36573995      -0.00000000       0.00000000
C      -11.68431317      -1.22319219       0.00450640
C      -10.29111440      -1.25071402       0.00526906
H      -13.45802607       0.01736335      -0.00059404
H      -12.24387325      -2.16133089       0.00743463
H       -9.68672895       2.11822541      -0.00594894
H       -9.75475728      -2.20130351       0.00876183
H      -12.17618575       2.15621016      -0.00728763
