49

  C       -5.0587010        2.8163160        0.0003280
  C       -3.9347040        2.1876470        0.0000900
  C        1.0220260       -0.5025690       -0.0000320
  C       -2.7191750        1.5036120        0.0000280
  C       -2.6774380        0.0544580       -0.0000260
  C       -1.4278090       -0.5570280       -0.0000500
  C       -0.2184090        0.1962470       -0.0000300
  C       -0.2460760        1.6339470        0.0000020
  C       -1.4898270        2.2493720        0.0000360
  H       -1.3438720       -1.6397940       -0.0000780
  H       -1.5765820        3.3320130        0.0000710
  C       -3.9822280       -0.7259010       -0.0000450
  H       -4.5729320       -0.4070060       -0.8741090
  H       -4.5729530       -0.4070150        0.8740070
  C       -3.8541430       -2.2624510       -0.0000510
  H       -3.2894480       -2.5947990       -0.8865970
  H       -3.2894690       -2.5948040        0.8865070
  C       -5.2388510       -2.9496220       -0.0000690
  H       -5.8069340       -2.6180380        0.8833240
  H       -5.8069020       -2.6180570       -0.8834890
  C       -5.1300210       -4.4897950       -0.0000500
  H       -4.5879420       -4.8424090        0.8893920
  H       -4.5879020       -4.8424300       -0.8894590
  C        1.0675930        2.4055040        0.0000070
  H        1.6547460        2.0905450        0.8788590
  H        1.6547780        2.0905000       -0.8788060
  C        0.9451680        3.9427410       -0.0000370
  H        0.3801720        4.2748300       -0.8858150
  H        0.3801520        4.2748840        0.8857080
  C        2.3307680        4.6278370       -0.0000400
  H        2.8983580        4.2967520        0.8844510
  H        2.8983940        4.2966710       -0.8844790
  C        2.2235820        6.1682360       -0.0001130
  H        1.6811250        6.5209050        0.8887010
  H        1.6811780        6.5208230       -0.8889930
  C        2.0753280       -1.1230480       -0.0000190
  H       -6.1233110       -4.9580820       -0.0000660
  H        3.2171110        6.6360750       -0.0001060
  C        3.3011990       -1.8639880        0.0000040
  C        3.2763870       -3.2812920        0.0000150
  C        4.4755180       -4.0051940        0.0000440
  C        5.7099180       -3.3304640        0.0000620
  C        5.7421340       -1.9240900        0.0000500
  C        4.5484580       -1.1908910        0.0000220
  H        6.6391070       -3.8962080        0.0000850
  H        6.6957690       -1.4006350        0.0000640
  H        2.3183070       -3.7960550        0.0000020
  H        4.5660020       -0.1035410        0.0000140
  H        4.4488690       -5.0926350        0.0000540
