49
Coordinates from ORCA-job opt
  C   -4.05226818696675      0.11561409428496     -0.00169232359660
  C   -2.83656504386935      0.05215978980608     -0.00342087809115
  C   2.84282938487154     -0.00421614933904     -0.00235186760660
  C   -1.41001419213464      0.00265602080725     -0.00314938316093
  C   -0.70813888225712     -1.25808966601459     -0.00272617425217
  C   0.71318535962407     -1.19251235332574     -0.00239192694788
  C   1.41414341355671      0.01692246677689     -0.00256997344304
  C   0.70618248871723      1.26075909189255     -0.00301188432661
  C   -0.68943799966914      1.20956698522261     -0.00337028450239
  H   1.28819130220939     -2.11870929467836     -0.00205794621320
  H   -1.26305906334635      2.13626893265854     -0.00379333062621
  C   -1.39680104775027     -2.49201095525135     -0.00264507045670
  H   -2.48935799286607     -2.45470766678316     -0.00306374030304
  C   -0.74112643021969     -3.84037960554797     -0.00217239731302
  H   -0.06992205440364     -3.93628980931838     -0.88079310265377
  H   -0.06880683499075     -3.93515591362262      0.87569827513071
  C   -1.73912015414110     -5.00560307912109     -0.00078741219292
  H   -2.39737923104012     -4.91427693104254      0.88242796708330
  H   -2.39856929553728     -4.91538549390176     -0.88323057101565
  C   -1.06164644713769     -6.37713081163818     -0.00038543713551
  H   -0.42049557588751     -6.50755695658130      0.88863867888446
  H   -0.42163988677744     -6.50864082424459     -0.89007407334073
  C   1.47977397942386      2.56272588518609     -0.00314071085489
  H   2.15748893847370      2.56172485443673      0.87121113034611
  H   2.15802932286068      2.56123705008293     -0.87706971100449
  C   0.66078171087300      3.85619808467905     -0.00372890814473
  H   -0.00228222113435      3.88055413448881     -0.88810426926408
  H   -0.00267113245820      3.88109962859357      0.88034078013373
  C   1.54104843063123      5.11178828409205     -0.00392983627777
  H   2.20716110187514      5.08929997448496      0.87862188501026
  H   2.20725354517559      5.08894107119388     -0.88640229749711
  C   0.73467390962525      6.41280339773159     -0.00424035827598
  H   0.08452987892456      6.48150831624316      0.88504920304130
  H   0.08450966141029      6.48107231857404     -0.89354890257556
  C   4.06458909927772     -0.02908404067477     -0.00339009235295
  H   -5.12284971678292      0.17684100748611      0.00201683345860
  H   -1.80277639342833     -7.19251235884472      0.00059399068638
  H   1.39326178150076      7.29651659860386     -0.00446757384885
  C   5.49257384127858     -0.05928313264970     -0.00302607018363
  C   6.18575925297173     -1.28943075929475     -0.00281865408851
  C   7.58008906232895     -1.31381694683291     -0.00238969675756
  C   8.30827338252873     -0.11867675289007     -0.00218814620170
  C   7.63121927186122      1.10627741643007     -0.00241945024685
  C   6.23720323482952      1.14054933201383     -0.00285008167314
  H   9.40053255261258     -0.14183324707981     -0.00185293045448
  H   8.19410731560394      2.04282726067091     -0.00226920631462
  H   5.61540123564955     -2.22020257232450     -0.00298817635694
  H   5.70701461592887      2.09478537229246     -0.00304041721698
  H   8.10346811817426     -2.27300700773108     -0.00221732700589
