49
Coordinates from ORCA-job opt_cc-pVDZ
  C   -4.05244361395921      0.11457629810696     -0.00191715721905
  C   -2.83669545748529      0.05202500665501     -0.00354901143000
  C   2.84269521013978     -0.00242560708404     -0.00240829198966
  C   -1.41014372753768      0.00319147081600     -0.00325518675224
  C   -0.70783334144381     -1.25732060701108     -0.00280143871012
  C   0.71347511556797     -1.19107817460794     -0.00246708289074
  C   1.41402143615346      0.01861533279198     -0.00263841817816
  C   0.70564639770724      1.26216845253438     -0.00305990005526
  C   -0.68996735503070      1.21035548606220     -0.00343619459990
  H   1.28911865795127     -2.11688187100481     -0.00212914115366
  H   -1.26413673653772      2.13672460392021     -0.00384194028637
  C   -1.39576742813974     -2.49160439325589     -0.00268168637641
  H   -2.48835566096101     -2.45494645186574     -0.00308372159049
  C   -0.73936004298720     -3.83966922934668     -0.00217577324251
  H   -0.06822001881931     -3.93524201298220     -0.88085525393083
  H   -0.06702338106812     -3.93402512155095      0.87569927862667
  C   -1.73688457813696     -5.00536129738898     -0.00068620382337
  H   -2.39517237477755     -4.91437777291614      0.88252461350186
  H   -2.39644053831028     -4.91557882960561     -0.88307547901383
  C   -1.05862009914753     -6.37656488745348     -0.00024355241047
  H   -0.41743677679428     -6.50657984498805      0.88880802155530
  H   -0.41867407931548     -6.50776384054264     -0.89001240872684
  C   1.47855477348354      2.56446322473035     -0.00314409659365
  H   2.15628964594142      2.56370928012449      0.87119132570317
  H   2.15681513257541      2.56329094957831     -0.87706882264936
  C   0.65904559154478      3.85763494189168     -0.00367583592478
  H   -0.00400015527558      3.88192278896853     -0.88804237052077
  H   -0.00440835633831      3.88237902900978      0.88037292772752
  C   1.53923133843416      5.11340275049178     -0.00380311507398
  H   2.20531456462085      5.09086223332755      0.87874889338683
  H   2.20548200355493      5.09055842766364     -0.88622067382375
  C   0.73267393136319      6.41439211215511     -0.00410609157431
  H   0.08253516218042      6.48288388118688      0.88519039747718
  H   0.08259991690240      6.48251045280070     -0.89347879021710
  C   4.06443989735775     -0.02792785412893     -0.00341686446989
  H   -5.12309222053135      0.17477180500165      0.00153011850091
  H   -1.79922848804787     -7.19243072908302      0.00081927466457
  H   1.39116814469581      7.29816943010907     -0.00426994907919
  C   5.49239862687535     -0.05996722748788     -0.00304558341358
  C   6.18375769468011     -1.29115525339343     -0.00280095328540
  C   7.57804259788345     -1.31767214457529     -0.00238140272106
  C   8.30798183735249     -0.12359655335795     -0.00223518395805
  C   7.63278263916325      1.10237798665166     -0.00251757036511
  C   6.23878727500201      1.13874487354467     -0.00293806418626
  H   9.40021003434098     -0.14838627735005     -0.00191120365894
  H   8.19716234884925      2.03802358330238     -0.00241437528550
  H   5.61207326488630     -2.22111342863276     -0.00292667299862
  H   5.71003291821956      2.09377788506509     -0.00316889648007
  H   8.09991568321779     -2.27767783687650     -0.00217234248472
