59
Coordinates from ORCA-job opt
  C   -4.05940836478133     -0.12221279162073     -0.00217436772609
  C   -2.83733552600026     -0.05049361241367     -0.00017907977499
  C   2.83920273285094      0.02727181020693      0.00050988461654
  C   -1.41807444712471      0.00506580879424      0.00014789879964
  C   -0.71610189339492      1.26926489382349     -0.00286640053148
  C   0.70573998480301      1.20794038896670     -0.00266173403081
  C   1.41105738622399      0.00182862485184      0.00045328730573
  C   0.70586588514290     -1.24536062085256      0.00351960795768
  C   -0.68800424574177     -1.20007703409195      0.00336950053295
  H   1.27703073433044      2.13639281911853     -0.00492210233901
  H   -1.25701257392569     -2.12958871622578      0.00559487852863
  C   -1.40558472436343      2.50062444849273     -0.00560181745548
  H   -2.49838910702133      2.46111576164868     -0.00518480843678
  C   -0.75404437888238      3.85105718093295     -0.00846750559602
  H   -0.08354820834964      3.95122015043624      0.87029064654103
  H   -0.08189295580315      3.94677178427686     -0.88644762591839
  C   -1.75576676050760      5.01265569868611     -0.01232122768378
  H   -2.41328944226457      4.91735811340875     -0.89616965508013
  H   -2.41515894509464      4.92167491447149      0.87059652050269
  C   -1.08352500265972      6.38650093796124     -0.01496499235899
  H   -0.44233712302943      6.51757438872458     -0.90399842343063
  H   -0.44415987559146      6.52189000302482      0.87472881814910
  C   1.48616568479370     -2.54356784014326      0.00645191581957
  H   2.16472293152339     -2.54058232018388     -0.86770212447349
  H   2.16406321302803     -2.53714687327828      0.88110636460313
  C   0.67408223499421     -3.84111739926221      0.00857536270150
  H   0.01055831257061     -3.86743943069118      0.89305625024691
  H   0.01112650226274     -3.87057936487019     -0.87623211449289
  C   1.56054703540901     -5.09192857631705      0.01100032474562
  H   2.22718333186747     -5.06747569604533     -0.87158490849245
  H   2.22625595197857     -5.06473605647167      0.89420657999072
  C   0.76087607557562     -6.39665413064530      0.01259036911080
  H   0.11151501973950     -6.47008121068658     -0.87716884792227
  H   0.11039686731416     -6.46723769165883      0.90176726182855
  C   4.06111450802483      0.05459105104822      0.00163578433035
  H   -1.82776922790340      7.19895088444340     -0.01772043304730
  H   1.42392498468163     -7.27683667166686      0.01442383707976
  C   5.48886115934897      0.08901534141861      0.00150463445027
  C   6.17865098112538      1.32101505606231     -0.01130876112583
  C   7.57280627673332      1.34936351693314     -0.01153068120549
  C   8.30468831733448      0.15656882356698      0.00099418913197
  C   7.63109816909061     -1.07014470629092      0.01380424141512
  C   6.23723991429160     -1.10840607647338      0.01411237632756
  H   9.39719382028601      0.18312263097184      0.00079627582887
  H   8.19679028473012     -2.00495944693071      0.02376804628980
  H   5.60595380818134      2.25029425525034     -0.02126423194826
  H   5.70996204267040     -2.06432609612386      0.02429226407107
  H   8.09326055021711      2.31016243270215     -0.02170836567892
  C   -5.48291530521977     -0.21123423415201     -0.00297496480370
  C   -6.27961045248232      0.95547840691655     -0.01987165407896
  C   -7.67062454757089      0.86163226387799     -0.02044925709367
  C   -8.29522837221884     -0.39082108672581     -0.00426276477215
  C   -7.51601496431418     -1.55342847236520      0.01252079087024
  C   -6.12442458674807     -1.47000684442942      0.01320136954620
  H   -9.38579015496822     -0.46115564512041     -0.00480917717386
  H   -7.99791804631593     -2.53416292126579      0.02538006001492
  H   -5.79167364713845      1.93200737550095     -0.03278649027458
  H   -5.51555992226946     -2.37589417895616      0.02651386689125
  H   -8.27273354943848      1.77334793944033     -0.03377808128179
