59
Coordinates from ORCA-job opt
  C   -4.05878035952910     -0.11402665845140     -0.00072939167864
  C   -2.83706663828809     -0.03721699961838      0.00045768630228
  C   2.83945580656125      0.02512843850659      0.00130282731876
  C   -1.41772985972511      0.01665067572849      0.00020370168877
  C   -0.71212773008967      1.27860442041156     -0.00326852614011
  C   0.70968715559048      1.21198275451607     -0.00247520303773
  C   1.41129786053907      0.00354853566931      0.00097526913597
  C   0.70225535152429     -1.24126634850506      0.00398272049799
  C   -0.69140835087251     -1.19077907836794      0.00362108724181
  H   1.28544527615551      2.13775666165852     -0.00476178768141
  H   -1.26466317012949     -2.11769290961036      0.00602952324343
  C   -1.39674860702109      2.51253389322912     -0.00752978158774
  H   -2.48937401685701      2.47737863765967     -0.00822211468809
  C   -0.74003402325141      3.86078964740789     -0.01124293294383
  H   -0.07195179701511      3.95992130215587      0.86925737976257
  H   -0.06538285916374      3.95189168633012     -0.88754389756068
  C   -1.73759543454353      5.02648488282733     -0.02043624914844
  H   -2.39291338370527      4.93240060334464     -0.90559998640370
  H   -2.39994211683767      4.94050255712254      0.86032077541801
  C   -1.05904670529957      6.39766610794582     -0.02402558246393
  H   -0.41506541638233      6.52386860212545     -0.91155635480103
  H   -0.42219793429796      6.53206730499400      0.86744035080828
  C   1.47633936060456     -2.54284049004998      0.00743442129964
  H   2.15505337271678     -2.54312031557055     -0.86612596334395
  H   2.15368495091336     -2.53937096406849      0.88205648925647
  C   0.65813229281066     -3.83679571199190      0.00952068412845
  H   -0.00572324142386     -3.86015860750364      0.89327881546582
  H   -0.00435475357589     -3.86376610921177     -0.87516622859298
  C   1.53954320325047     -5.09184121666754      0.01279607869766
  H   2.20645494553571     -5.07018523520528     -0.86911139257838
  H   2.20486645924256     -5.06671583517954      0.89581014891033
  C   0.73388702567239     -6.39351097313260      0.01463664186814
  H   0.08497013284961     -6.46388169928354     -0.87541033858197
  H   0.08296015182777     -6.46011463173170      0.90350356370993
  C   4.06135604174270      0.05170040358448      0.00249829750274
  H   -1.79921587949548      7.21395025608156     -0.03076734514073
  H   1.39293041600387     -7.27687400407010      0.01725198566023
  C   5.48903337480826      0.08867064380624      0.00262216177455
  C   6.17583746634856      1.32254306761035      0.00141623670402
  C   7.57000775601306      1.35449244646806      0.00141579206525
  C   8.30458918030974      0.16322532739024      0.00263251335561
  C   7.63408181189356     -1.06532149964406      0.00386446050207
  C   6.24022622273502     -1.10709978094621      0.00387763351912
  H   9.39671639113543      0.19218457041347      0.00261669918516
  H   8.20221529490873     -1.99870313728038      0.00480981170975
  H   5.60067319893865      2.25035349740007      0.00047260201431
  H   5.71522889088072     -2.06421074114533      0.00481476922351
  H   8.08800838007956      2.31659710993532      0.00046051621221
  C   -5.48136103711620     -0.21716675393589     -0.00079188313913
  C   -6.29150628788174      0.94036233747768     -0.00196240643478
  C   -7.68143214047219      0.82977701704894     -0.00187266930673
  C   -8.29118033855860     -0.43015705327641     -0.00063187558957
  C   -7.49864803373608     -1.58395078380751      0.00052754631734
  C   -6.10808111046940     -1.48370068556027      0.00044574693784
  H   -9.38056455538037     -0.51268687506366     -0.00054513107594
  H   -7.96874617185602     -2.57037677974995      0.00149765869178
  H   -5.81524575204571      1.92262912207605     -0.00286057834719
  H   -5.48812912285668     -2.38221753247260      0.00134464124602
  H   -8.29468259371541      1.73418886017657     -0.00275900710919
