59
Coordinates from ORCA-job opt_cc-pVDZ
  C   -4.05880193692848     -0.11374274373821     -0.00063808410508
  C   -2.83708158501494     -0.03701157651672      0.00059565048724
  C   2.83944172920076      0.02520024923330      0.00140773970763
  C   -1.41773612335492      0.01670760405747      0.00043992731639
  C   -0.71210351879065      1.27866446371935     -0.00298891555694
  C   0.70969559810333      1.21212565101462     -0.00223923433078
  C   1.41127796519935      0.00368513788445      0.00114351407169
  C   0.70221814742333     -1.24114322989985      0.00410271435248
  C   -0.69143901977495     -1.19073772062437      0.00377477761296
  H   1.28537307908305      2.13794738750975     -0.00450067738674
  H   -1.26462315403550     -2.11769481285385      0.00612795785120
  C   -1.39684016509421      2.51254980800950     -0.00714430083034
  H   -2.48946746962981      2.47729407044715     -0.00768863826382
  C   -0.74023035467651      3.86083479226603     -0.01083032114762
  H   -0.07233346128809      3.96009115482982      0.86981303923858
  H   -0.06536062535909      3.95192604248046     -0.88697311105715
  C   -1.73783970795190      5.02646004979545     -0.02033717384555
  H   -2.39293753813038      4.93222623965412     -0.90566250692429
  H   -2.40038210271737      4.94045666586120      0.86028557489184
  C   -1.05946279458486      6.39770061763706     -0.02386201404384
  H   -0.41525481434509      6.52391756573822     -0.91123324205520
  H   -0.42280841462695      6.53223655914300      0.86772914096948
  C   1.47645381812103     -2.54263980539422      0.00744531037284
  H   2.15515632774965     -2.54278256863596     -0.86613474977191
  H   2.15382032125642     -2.53917347123391      0.88206268469342
  C   0.65837303581246     -3.83665981429684      0.00943969321088
  H   -0.00545170023559     -3.86013692489811      0.89323677574918
  H   -0.00415902506388     -3.86356820156969     -0.87523378565648
  C   1.53981710544211     -5.09164502673081      0.01254529259393
  H   2.20669325149264     -5.06988258588088     -0.86940308106541
  H   2.20517990955625     -5.06659990065831      0.89554896414531
  C   0.73426347893692     -6.39334452931099      0.01427943487685
  H   0.08529338899425     -6.46370042297755     -0.87573935510343
  H   0.08336027077202     -6.46012789666810      0.90316017526374
  C   4.06134538315743      0.05165050891078      0.00252911500113
  H   -1.79975180059474      7.21386693163579     -0.03083605427609
  H   1.39336885980467     -7.27665764765176      0.01677009613650
  C   5.48902812980358      0.08847606412704      0.00258399444247
  C   6.17598166575642      1.32226110579813      0.00083386428583
  C   7.57015021900228      1.35402564287596      0.00077645939437
  C   8.30460281661409      0.16268172959621      0.00247821675141
  C   7.63393954542715     -1.06577650036461      0.00425760324254
  C   6.24008331151684     -1.10737628168031      0.00433174270311
  H   9.39674071037430      0.19151932093946      0.00241903975500
  H   8.20195348612986     -1.99923134120620      0.00559213461539
  H   5.60093691081065      2.25014441601017     -0.00049410113487
  H   5.71497433025428     -2.06442917339743      0.00570652092376
  H   8.08827425464191      2.31606664195309     -0.00061228283249
  C   -5.48137502291487     -0.21698892183351     -0.00076192800266
  C   -6.29161097990654      0.94046717821561     -0.00293885335761
  C   -7.68152623270174      0.82980338294181     -0.00295671800864
  C   -8.29119385487945     -0.43016379461114     -0.00084624167647
  C   -7.49855969059124     -1.58388374649442      0.00127852674090
  C   -6.10800670764328     -1.48356364026441      0.00131145305870
  H   -9.38057770756223     -0.51279089980751     -0.00085922179613
  H   -7.96859876791685     -2.57034143998830      0.00292533899674
  H   -5.81541719836048      1.92276872834260     -0.00455537367440
  H   -5.48800353945830     -2.38204045993764      0.00296102313099
  H   -8.29482368630407      1.73418132849799     -0.00462292068054
