41
 g-Tensor orientation as XYZ file; He=chosen origin Ne=g1 Ar=g2 Kr=g3
C       -2.934073386     -0.018765607     -0.033820568
C        1.296326273      0.061617286      0.042355299
C        0.590315540      1.299012027      0.023646252
C       -0.830012157      1.218757761     -0.002082942
C       -1.498941257     -0.010709998     -0.008375690
C       -0.774369934     -1.238299670      0.010896253
C        0.629304521     -1.156514484      0.035977976
H       -1.426643023      2.131592336     -0.017243434
H        1.218067937     -2.074806162      0.050924512
C        1.286598637      2.534947598      0.031265526
H        2.380845551      2.491530128      0.052873971
C        0.640773683      3.887236696      0.012786546
H       -0.012358445      3.982869129     -0.879700411
H       -0.049609557      3.989014484      0.876092402
C        1.643396976      5.048244095      0.030136835
H        2.282865101      4.958143915      0.927400198
H        2.320747725      4.952085932     -0.838264373
C        0.972654764      6.422996143      0.011072653
H        0.314264659      6.559972199      0.886339282
H        0.351320225      6.553366061     -0.891860440
C       -1.525236372     -2.553953156      0.005144437
H       -2.211934470     -2.565965695      0.872442778
H       -2.196234662     -2.567265243     -0.874138148
C       -0.682959352     -3.832514631      0.013733138
H       -0.008492077     -3.844031337     -0.862466468
H       -0.029866376     -3.846911744      0.905937020
C       -1.540345934     -5.103811603      0.002012081
H       -2.217941995     -5.093519776      0.875899344
H       -2.195918054     -5.092106275     -0.888500197
C       -0.711165333     -6.390339862      0.011268630
H       -0.071580726     -6.448752361      0.909013625
H       -0.048194508     -6.446329735     -0.869486351
C       -4.149636927     -0.020449038     -0.056777772
H       -5.221733888     -0.017268799     -0.080212932
H        1.717398606      7.235047286      0.023637902
H       -1.353741979     -7.285749880      0.001613314
H        2.389514035      0.078500953      0.062394234
He       0.000000000      0.000000000      0.000000000
Ne      -0.015048633      0.004147759      0.793612311
Ar      -0.541540543      0.580190559     -0.013301124
Kr      -0.580147864     -0.541687987     -0.008169784
