37
Coordinates from ORCA-job opt
  C   -2.93407338612183     -0.01876560733059     -0.03382056844215
  C   1.29632627318329      0.06161728552997      0.04235529892338
  C   0.59031553974955      1.29901202660939      0.02364625189234
  C   -0.83001215695525      1.21875776086377     -0.00208294192114
  C   -1.49894125748000     -0.01070999809785     -0.00837568985583
  C   -0.77436993439582     -1.23829966969788      0.01089625280641
  C   0.62930452086820     -1.15651448363749      0.03597797591909
  H   -1.42664302328033      2.13159233598383     -0.01724343383171
  H   1.21806793698494     -2.07480616237713      0.05092451155777
  C   1.28659863737832      2.53494759792400      0.03126552613141
  H   2.38084555082752      2.49153012830790      0.05287397059050
  C   0.64077368325504      3.88723669555938      0.01278654561425
  H   -0.01235844479496      3.98286912897993     -0.87970041116736
  H   -0.04960955697988      3.98901448366320      0.87609240233645
  C   1.64339697627267      5.04824409475467      0.03013683549710
  H   2.28286510053833      4.95814391458517      0.92740019820260
  H   2.32074772497428      4.95208593236464     -0.83826437324620
  C   0.97265476429225      6.42299614290431      0.01107265270524
  H   0.31426465924363      6.55997219929042      0.88633928232596
  H   0.35132022453708      6.55336606100696     -0.89186043958203
  C   -1.52523637153501     -2.55395315600981      0.00514443659837
  H   -2.21193447025800     -2.56596569544823      0.87244277837312
  H   -2.19623466249630     -2.56726524333046     -0.87413814802850
  C   -0.68295935180099     -3.83251463109390      0.01373313781478
  H   -0.00849207655099     -3.84403133688916     -0.86246646788059
  H   -0.02986637631227     -3.84691174429474      0.90593702005676
  C   -1.54034593394788     -5.10381160308444      0.00201208070302
  H   -2.21794199495361     -5.09351977601087      0.87589934373598
  H   -2.19591805408014     -5.09210627506933     -0.88850019676355
  C   -0.71116533307829     -6.39033986223203      0.01126862989033
  H   -0.07158072568306     -6.44875236086186      0.90901362486821
  H   -0.04819450791212     -6.44632973514054     -0.86948635113383
  C   -4.14963692701532     -0.02044903756994     -0.05677777246505
  H   -5.22173388817531     -0.01726879856826     -0.08021293154506
  H   1.71739860575496      7.23504728583952      0.02363790210006
  H   -1.35374197930045     -7.28574988017934      0.00161331357977
  H   2.38951403524773      0.07850095275680      0.06239423364011
