37
Coordinates from ORCA-job opt_cc-pVDZ
  C   -2.93396481896690     -0.01915566224693     -0.03396789953310
  C   1.29644360736127      0.06182427085832      0.04056550367074
  C   0.59032163032298      1.29916093753913      0.02254809044415
  C   -0.83003869128129      1.21869883711500     -0.00256777307784
  C   -1.49884724385610     -0.01086523957381     -0.00878210957972
  C   -0.77412213587483     -1.23836802196652      0.00978795067970
  C   0.62952536612125     -1.15638252285259      0.03418921693055
  H   -1.42704814299330      2.13130475772713     -0.01726700387253
  H   1.21857527630136     -2.07453580424556      0.04858283868962
  C   1.28637911812485      2.53519724552633      0.03020094853790
  H   2.38064960714043      2.49176951806873      0.05108191002266
  C   0.64053173639754      3.88750694593075      0.01249315611006
  H   -0.01237592216614      3.98366246744189     -0.88009171695362
  H   -0.04999861135155      3.98862159668700      0.87573179780414
  C   1.64334546354225      5.04838032349107      0.03087622323769
  H   2.28261743609607      4.95755772900559      0.92819109241787
  H   2.32090109003639      4.95281067957731     -0.83741319048174
  C   0.97275049988703      6.42326695013490      0.01262705571056
  H   0.31416934181392      6.55966920161294      0.88782846956044
  H   0.35181428102284      6.55436920263453     -0.89046788722056
  C   -1.52472537642687     -2.55407877916268      0.00395797537177
  H   -2.21207737318499     -2.56570730714741      0.87071968608306
  H   -2.19507766342946     -2.56778087748405     -0.87581592875746
  C   -0.68242193475648     -3.83263222970364      0.01383023415657
  H   -0.00749176242148     -3.84497936860444     -0.86197864193063
  H   -0.02984734757020     -3.84660236525081      0.90640017441658
  C   -1.54041027004878     -5.10365916837889      0.00247386891874
  H   -2.21850193937264     -5.09231795799531      0.87594581339332
  H   -2.19550056700395     -5.09212686987530     -0.88837602904876
  C   -0.71185914061183     -6.39067317535866      0.01311016019366
  H   -0.07286883550471     -6.44866476457935      0.91129059122472
  H   -0.04848696804613     -6.44750424322181     -0.86727360072211
  C   -4.14953689222197     -0.02106679914439     -0.05663691864849
  H   -5.22165664034391     -0.01820418550553     -0.07957921599957
  H   1.71752685222216      7.23528444406502      0.02600028251023
  H   -1.35493071096546     -7.28572342812127      0.00373400041850
  H   2.38964150200859      0.07881263300333      0.05998535532290
