37
Coordinates from ORCA-job BDE
  C   -0.07612185049115     -0.01189246171278     -0.00031698514248
  C   1.32618267608759      0.01392932115381     -0.00006285469045
  C   2.08884652051051     -1.21130024825610     -0.00339127828814
  C   3.48395912538085     -1.09422703273437     -0.00291196340807
  C   4.11356503563880      0.16145885389301      0.00069111303164
  C   3.38269083762672      1.37709589563611      0.00402295692450
  C   1.99458237308190      1.28146146008801      0.00354647694207
  H   4.10101944051245     -1.98614156250889     -0.00534192080350
  H   1.37054548698843      2.16783028019486      0.00592969375436
  C   1.37121279948867     -2.54742716833179     -0.00722786042130
  H   0.70096119602228     -2.56961333769621     -0.87611450993056
  H   0.69927862261947     -2.57366659564154      0.86022801447344
  C   2.25823305345562     -3.80210615205461     -0.00931541918371
  H   2.91490667589437     -3.79677797815055     -0.88985901804483
  H   2.91346959060074     -3.80063764541040      0.87231851311612
  C   1.42908535593357     -5.09953585156918     -0.01284388921253
  H   0.76956764274245     -5.10871746578684      0.86461691849388
  H   0.77110196987174     -5.10495277344521     -0.89148837283749
  C   2.30041133684454     -6.36714864756696     -0.01480537154183
  H   2.94539421583815     -6.40401543742537      0.87045204946646
  H   2.94735169387688     -6.39993374111102     -0.89879498853131
  C   4.13836190492589      2.69895565926805      0.00788946078736
  H   4.80203742072535      2.71066887123025      0.88378539183900
  H   4.80339480054326      2.71496925360348     -0.86690422468768
  C   3.28189642310779      3.97462318701418      0.01036242727864
  H   2.62602429594442      3.98287270773396     -0.87020772397960
  H   2.62455489209725      3.97853108098479      0.88985975188432
  C   4.13326882421899      5.25720687298487      0.01425264867156
  H   4.79075000555127      5.25239887267875      0.89382466105859
  H   4.79239628337039      5.25662264107974     -0.86409913517871
  C   3.28303218829960      6.53928861819824      0.01655116979023
  H   2.63641144953877      6.58161193425711      0.90003030346410
  H   2.63855038155892      6.58620877230710     -0.86825774788876
  H   1.68487386516531     -7.27236002349846     -0.01757432618697
  H   3.91323951872977      7.43435859760710      0.01963986970268
  H   5.20162659463551      0.20346452268962      0.00091473853444
  C   -1.36695313693707     -0.03887008970280     -0.00056236925547
