52
 g-Tensor orientation as XYZ file; He=chosen origin Ne=g1 Ar=g2 Kr=g3
C       -3.990230804      0.213841491     -0.298689119
C       -2.777202015      0.134401422     -0.264167797
C        2.881117715     -0.106320125     -0.120938563
C       -1.347580120      0.049789008     -0.226693157
C       -0.698662680     -1.210431598     -0.168978111
C        0.696414149     -1.210949109     -0.136033334
C        1.451515650     -0.021244209     -0.158159020
C        0.802553536      1.238941679     -0.215585302
C       -0.592524579      1.239697066     -0.248218287
H        1.240484343     -2.154117493     -0.091566245
H       -1.136489771      2.183031464     -0.291657531
C       -1.520795554     -2.484848704     -0.145692638
H       -2.176646610     -2.488350390     -1.035775945
H       -2.218070435     -2.430135332      0.710535824
C       -0.747760471     -3.804773936     -0.083711017
H       -0.066510099     -3.882052859     -0.951168802
H       -0.105100162     -3.822574132      0.815836076
C       -1.671276843     -5.028795500     -0.062159440
H       -2.353765817     -4.954481741      0.804808756
H       -2.318821285     -5.011893819     -0.958436504
C       -0.911004319     -6.356092486     -0.003542015
H       -0.279818584     -6.416782421      0.899916040
H       -0.247976582     -6.477180185     -0.877607490
C        1.625960208      2.512301907     -0.238908559
H        2.288488814      2.510214131      0.646134736
H        2.316796781      2.461153905     -1.100696221
C        0.854746575      3.833459229     -0.287928391
H        0.209453310      3.860975222     -1.184671553
H        0.180475676      3.912330688      0.583194668
C        1.786297295      5.054576752     -0.308233540
H        2.452926319      5.030614420      0.576943061
H        2.476573514      4.960569807     -1.179156385
C        1.071032891      6.365834507     -0.362651277
H        0.095267357      6.402624008     -0.863681449
C        1.766851291      7.657378333     -0.078213029
H        2.447635839      7.917282975     -0.923106012
H        2.441558391      7.532993255      0.792881133
C        0.820543147      8.841876143      0.167055636
H        0.163438651      8.964771837     -0.713801884
H        0.153000867      8.598335320      1.013255266
C        1.555998765     10.154268854      0.446798780
H        2.197775924     10.071071520      1.341049583
H        2.205840698     10.437943039     -0.399281045
C        4.094180438     -0.186870874     -0.089942057
H       -5.059894942      0.285440899     -0.327738206
H        5.163802989     -0.259276242     -0.061370838
H       -1.600271306     -7.215913115      0.013459765
H        0.851264356     10.984018819      0.618925667
He       0.000000000      0.000000000      0.000000000
Ne      -0.256641751     -0.075199213      0.747358184
Ar       0.185771028      0.758887658      0.140152819
Kr      -0.727796882      0.220224354     -0.227765444
