48
Properties=species:S:1:pos:R:3 Coordinates=T from=T ORCA-job=T opt=T pbc="F F F"
C       -4.04744388       0.09862338       0.00308142
C       -2.83234607       0.04837551       0.00404279
C        2.83234792      -0.04807622       0.00158522
C       -1.40046707       0.00000000       0.00000000
C       -0.71838270      -1.24266245      -0.05517444
C        0.67668111      -1.20802467      -0.05282102
C        1.40046707      -0.00000000      -0.00000000
C        0.71833550       1.24292050       0.04949364
C       -0.67671717       1.20830174       0.04945588
H        1.24544461      -2.13674310      -0.09428987
H       -1.24546298       2.13715956       0.08741695
C       -1.50791153      -2.53633197      -0.11343029
H       -2.22149844      -2.46576481      -0.95453574
H       -2.14712009      -2.59292255       0.78727449
C       -0.70376050      -3.83263013      -0.24291794
H       -0.06787575      -3.78957667      -1.14644105
H       -0.01413009      -3.93667500       0.61504923
C       -1.59913913      -5.07562207      -0.31714449
H       -2.23672409      -5.11866440       0.58534876
H       -2.29264267      -4.97296635      -1.17237470
C       -0.81012052      -6.38037621      -0.45128258
H       -0.13369837      -6.53055407       0.40785611
H       -0.18893682      -6.38009603      -1.36358109
C        1.50773287       2.53712346       0.09717775
H        2.13981275       2.52387393       1.00454959
H        2.22796319       2.53030537      -0.74098682
C        0.70351210       3.83953754       0.05868415
H        0.06468965       3.85653893      -0.84341448
H        0.01707649       3.88537783       0.92398646
C        1.60016504       5.08337554       0.06090732
H        2.23760806       5.07440197       0.96528459
H        2.29526821       5.03039011      -0.79846397
C        0.82099134       6.40189017       0.00000000
H        0.17427883       6.40120397      -0.89817489
C        1.71713338       7.64483213      -0.02503969
H        2.40840995       7.57770816      -0.88716969
H        2.35948081       7.65215987       0.87648744
C        0.94133335       8.96470082      -0.10351259
H        0.29408653       8.95224188      -1.00039793
H        0.25638656       9.03710153       0.76202506
C        1.84707969      10.19822704      -0.14345230
H        2.48322788      10.25734275       0.75672412
H        2.51836606      10.17360788      -1.01940768
C        4.04738837      -0.09954427      -0.00006972
H       -5.11898717       0.14254961       0.00406170
H        5.11898371      -0.14230261      -0.00018101
H       -1.48013735      -7.25381919      -0.50436100
H        1.26084387      11.13013502      -0.19923346
