48
Coordinates from ORCA-job opt
  C   -3.99023080424762      0.21384149076538     -0.29868911903362
  C   -2.77720201545042      0.13440142163225     -0.26416779665864
  C   2.88111771475667     -0.10632012540337     -0.12093856265647
  C   -1.34758011960992      0.04978900818124     -0.22669315718623
  C   -0.69866268033498     -1.21043159750522     -0.16897811121253
  C   0.69641414894741     -1.21094910882017     -0.13603333360818
  C   1.45151565028473     -0.02124420862458     -0.15815901987976
  C   0.80255353630148      1.23894167949994     -0.21558530197850
  C   -0.59252457889456      1.23969706555044     -0.24821828696603
  H   1.24048434317305     -2.15411749279228     -0.09156624526033
  H   -1.13648977107823      2.18303146420512     -0.29165753059912
  C   -1.52079555366947     -2.48484870358512     -0.14569263785717
  H   -2.17664661010933     -2.48835039047816     -1.03577594487867
  H   -2.21807043516734     -2.43013533160095      0.71053582370480
  C   -0.74776047051847     -3.80477393565902     -0.08371101656583
  H   -0.06651009933940     -3.88205285914017     -0.95116880195512
  H   -0.10510016189143     -3.82257413224149      0.81583607625139
  C   -1.67127684306879     -5.02879550049877     -0.06215944004409
  H   -2.35376581717333     -4.95448174073460      0.80480875642408
  H   -2.31882128532151     -5.01189381933065     -0.95843650408908
  C   -0.91100431858980     -6.35609248563501     -0.00354201529465
  H   -0.27981858384553     -6.41678242120074      0.89991604033405
  H   -0.24797658198893     -6.47718018468504     -0.87760748971123
  C   1.62596020766441      2.51230190735046     -0.23890855935776
  H   2.28848881394018      2.51021413140897      0.64613473609836
  H   2.31679678090789      2.46115390498054     -1.10069622102762
  C   0.85474657450897      3.83345922888834     -0.28792839089006
  H   0.20945331028340      3.86097522184975     -1.18467155292153
  H   0.18047567607401      3.91233068839919      0.58319466804247
  C   1.78629729545263      5.05457675162597     -0.30823353987513
  H   2.45292631860785      5.03061441978966      0.57694306065390
  H   2.47657351352151      4.96056980730751     -1.17915638502545
  C   1.07103289080037      6.36583450665097     -0.36265127736573
  H   0.09526735743911      6.40262400758469     -0.86368144905336
  C   1.76685129146556      7.65737833322185     -0.07821302852668
  H   2.44763583944257      7.91728297541962     -0.92310601197706
  H   2.44155839098900      7.53299325514670      0.79288113322772
  C   0.82054314651932      8.84187614288679      0.16705563565658
  H   0.16343865116052      8.96477183683407     -0.71380188384953
  H   0.15300086673245      8.59833531974536      1.01325526588363
  C   1.55599876467752     10.15426885383846      0.44679877998621
  H   2.19777592447886     10.07107151986636      1.34104958265645
  H   2.20584069794038     10.43794303869930     -0.39928104525897
  C   4.09418043805720     -0.18687087421527     -0.08994205691191
  H   -5.05989494240931      0.28544089860943     -0.32773820577997
  H   5.16380298939752     -0.25927624188505     -0.06137083771653
  H   -1.60027130639585     -7.21591311522067      0.01345976500795
  H   0.85126435557964     10.98401881931793      0.61892566704496
