48
Coordinates from ORCA-job opt_EPRII
  C   -3.99940246351267      0.21368476682085     -0.31234611194623
  C   -2.78164595749250      0.13919860357854     -0.27956283557340
  C   2.88506399755381     -0.11583333894118     -0.14362998763816
  C   -1.34919092266946      0.05134193616806     -0.24366689548766
  C   -0.70356372408866     -1.21352956053073     -0.18078809414300
  C   0.69515904757217     -1.21967972592557     -0.15052865817138
  C   1.45262436814507     -0.02747332464931     -0.17896764857738
  C   0.80701654771485      1.23743596596902     -0.23947729580973
  C   -0.59170266628970      1.24379733382120     -0.27114050825852
  H   1.23234441038316     -2.15977129727359     -0.10327490641085
  H   -1.12889915555643      2.18403174183161     -0.31704480264707
  C   -1.53239182812964     -2.48881611187187     -0.14815305294865
  H   -2.17944828421489     -2.50107890641744     -1.03548844877437
  H   -2.22016278513513     -2.42922079322152      0.70597907837101
  C   -0.75170910203181     -3.81046679067033     -0.07523476587446
  H   -0.08071787277866     -3.89655842313834     -0.94040608722618
  H   -0.11400673182235     -3.81958607439052      0.81884936724313
  C   -1.67889102534858     -5.03870495450035     -0.03818926358031
  H   -2.35136102652852     -4.95856639276845      0.82623185281033
  H   -2.32052449701489     -5.03515654007966     -0.92933248088670
  C   -0.90912940319163     -6.36899854977856      0.03391606785783
  H   -0.28087953400046     -6.41217763806279      0.93078935940798
  H   -0.25440892076596     -6.49293011944265     -0.83609674170726
  C   1.63739986866053      2.51143329455453     -0.26538021748438
  H   2.29163882099205      2.51123419234618      0.61676452509578
  H   2.31836210189247      2.46071809493635     -1.12567463357304
  C   0.85960410499456      3.83513472980918     -0.31420612959706
  H   0.22644014776910      3.86602239562029     -1.21046900322188
  H   0.18854560321737      3.91102487598439      0.55025682399028
  C   1.79801238894241      5.05823044770028     -0.32350858168927
  H   2.44275858353723      5.03385631846401      0.56795767846575
  H   2.49048035906729      4.96509227680885     -1.18186529707670
  C   1.07870935282116      6.37521129590375     -0.38554622124507
  H   0.11944899458738      6.41663687312304     -0.90242613956242
  C   1.77236630082882      7.66842975798304     -0.06599971476720
  H   2.46445707470328      7.93937225635976     -0.88623054698498
  H   2.41440891129735      7.53324977045318      0.81777808010543
  C   0.81405996058411      8.85280361774244      0.17333798830898
  H   0.18678315296226      8.99045999853726     -0.71707354711726
  H   0.13434274583054      8.60051446575244      0.99659118975326
  C   1.55023622527479     10.16520894398579      0.49218441879702
  H   2.16675885583775     10.06158479874830      1.39230062903140
  H   2.21271429974551     10.45549626412773     -0.33130799029337
  C   4.10287881294139     -0.19099663160867     -0.11431351713635
  H   -5.06286358249997      0.28103234109190     -0.33984307480032
  H   5.16632263841096     -0.25881594502333     -0.08757867042295
  H   -1.59275519601471     -7.22382842105899      0.06283593250451
  H   0.84630951281925     10.98660561113179      0.66161310889086
