48
Coordinates from ORCA-job opt
  C   -4.03309477836724      0.12599480334771     -0.12054960049087
  C   -2.81855415996300      0.06428288384735     -0.11373267017156
  C   2.84470145920075     -0.08769832981157     -0.09401435186746
  C   -1.38730847885629      0.00167008466559     -0.10912040936851
  C   -0.71741495824780     -1.24857735697183     -0.13138666058654
  C   0.67789106598993     -1.22730406728416     -0.12520148220573
  C   1.41344987980119     -0.02545538504208     -0.09823819502435
  C   0.74352026737368      1.22478646283078     -0.07603989474955
  C   -0.65177357397116      1.20349698317583     -0.08220658567488
  H   1.23751526063281     -2.16225107256686     -0.14159233160932
  H   -1.21157358356238      2.13832611991110     -0.06606648908106
  C   -1.51908226028605     -2.53574039673260     -0.16031899231318
  H   -2.19339087959250     -2.50242375385690     -1.03582152945108
  H   -2.19891684909087     -2.53805710346491      0.71156974990067
  C   -0.72516952356634     -3.84442822654034     -0.18426282318485
  H   -0.05741935296162     -3.86330307719149     -1.06531279576725
  H   -0.06744750289637     -3.90129758352857      0.70269769489809
  C   -1.63015405902892     -5.08204281352822     -0.21617156201376
  H   -2.30255690101886     -5.06367911432439      0.66157335741885
  H   -2.28916955484293     -5.02787624985887     -1.10255622144413
  C   -0.84964952085232     -6.39868019841740     -0.23716218076100
  H   -0.20998696191844     -6.49959672520209      0.65665486466651
  H   -0.19232507595109     -6.46056162407440     -1.12167322722559
  C   1.54497603357387      2.51226203748929     -0.04631010651131
  H   2.21126451782563      2.48379886712662      0.83548858817089
  H   2.23241744108652      2.51087741878575     -0.91203326657193
  C   0.74880567126234      3.81997969595110     -0.03563735329935
  H   0.09497433798644      3.86783518590560     -0.92571770288902
  H   0.07723356630281      3.84347884436816      0.84209435827367
  C   1.65075016606296      5.05998523252743     -0.00920288096385
  H   2.30877973243989      5.01513399361162      0.87912534643561
  H   2.32539667243081      5.04043219323671     -0.88589480320152
  C   0.87114428619268      6.37974757415049      0.00229480953242
  H   0.19617415355447      6.39785133711517      0.87916596943586
  H   0.21283185703905      6.42273097088074     -0.88630992973953
  C   1.76813695022614      7.62233206354276      0.02824867104765
  H   2.44086893554456      7.61421388597298     -0.84900212582946
  H   2.42436398534263      7.58942178587395      0.91734519017924
  C   0.96599206194529      8.94877253550669      0.03942389725616
  H   0.31304617077595      8.96278728179104     -0.85343475166572
  H   0.29526164062796      8.93714116028002      0.91905277270546
  C   1.82104021786401     10.17163104110102      0.06583841101274
  H   2.20096491076597     10.57021538458538      1.01089142038806
  H   2.21873287691796     10.59827351254355     -0.85943709967129
  C   4.05928659673713     -0.14883663457424     -0.09223372555638
  H   -5.10411743201067      0.18126977231044     -0.12455305917258
  H   5.13037044606068     -0.20300009634824     -0.08953319676398
  H   -1.52574272457923     -7.26866425311578     -0.26300778649526
