53
 g-Tensor orientation as XYZ file; He=chosen origin Ne=g1 Ar=g2 Kr=g3
C       -4.099903401      0.083492034     -0.018352515
C       -2.815945913      0.043661414     -0.012329921
C        2.806008059     -0.004269059     -0.008539025
C       -1.423130520      0.006681166     -0.011521376
C       -0.708302507     -1.246812479     -0.013958729
C        0.675891820     -1.194656126     -0.012683527
C        1.390968558      0.032616253     -0.009321655
C        0.692187321      1.284040088     -0.006826019
C       -0.689713855      1.234894225     -0.008082451
H        1.259776221     -2.114722372     -0.014384656
H       -1.277364831      2.152362876     -0.006417384
C       -1.482678045     -2.545270162     -0.017742230
H       -2.162955944     -2.531884226     -0.888087080
H       -2.164000546     -2.536304978      0.851847655
C       -0.664772799     -3.838899630     -0.020462733
H       -0.001060321     -3.863835620     -0.904705021
H       -0.002549970     -3.868471673      0.864757042
C       -1.549764528     -5.091580893     -0.024485758
H       -2.216737732     -5.067646811      0.856693828
H       -2.214978558     -5.063238456     -0.906863552
C       -0.747241608     -6.394947267     -0.026958254
H       -0.098784651     -6.468624399      0.863262996
H       -0.096712522     -6.463963010     -0.916038785
C        1.475609679      2.580851469     -0.003105477
H        2.150779737      2.571662706      0.872484940
H        2.151901843      2.575969368     -0.877871913
C        0.660275578      3.876515604     -0.000465551
H       -0.001813432      3.904738573     -0.885018977
H       -0.003429853      3.900163839      0.883006959
C        1.545552928      5.128838350      0.003580615
H        2.210397624      5.101571173      0.886923068
H        2.212314107      5.105900014     -0.878437632
C        0.742543818      6.432044242      0.005923687
H        0.091761553      6.499752796      0.894507256
H        0.094086187      6.504394656     -0.883993357
C        4.030664665     -0.051607733     -0.009916832
H       -1.409442015     -7.275742186     -0.030043512
H        1.404247976      7.313239580      0.009095916
C        5.453352529     -0.107226089     -0.009646502
C        6.121835138     -1.352501042     -0.012192549
C        7.514506058     -1.401457652     -0.011852781
C        8.262259339     -0.217736543     -0.009063078
C        7.609923579      1.021237412     -0.006590478
C        6.217754406      1.081652670     -0.006878968
H        9.353772292     -0.260949256     -0.008832992
H        8.191472736      1.945910661     -0.004437828
H        5.533939303     -2.272104633     -0.014369372
H        5.703997714      2.044628891     -0.004992380
H        8.021809271     -2.368852926     -0.013791453
He       1.661143046     -0.025561167     -0.010463534
Ne       1.656422872     -0.027051393      0.783286845
Ar       1.669296985      0.768161272     -0.008924872
Kr       0.867433151     -0.017398237     -0.015168142
