49
Coordinates from ORCA-job opt_cc-pVDZ
  C   -4.09989943281726      0.08256680861076     -0.01822151505758
  C   -2.81592055422054      0.04341821733017     -0.01222931711730
  C   2.80604865735421     -0.00303069690850     -0.00854088582416
  C   -1.42309313670037      0.00686340841052     -0.01142786982542
  C   -0.70796245686839     -1.24648030270486     -0.01393617284048
  C   0.67623568323444     -1.19394119662642     -0.01269911281335
  C   1.39099275592786      0.03356013790608     -0.00930022104020
  C   0.69189223617830      1.28476099215072     -0.00677523599946
  C   -0.68998120008575      1.23524641746322     -0.00799679550233
  H   1.26046297014404     -2.11378276213958     -0.01443724165481
  H   -1.27792416821054      2.15251355553943     -0.00631047401165
  C   -1.48200794355605     -2.54516881660092     -0.01773390683215
  H   -2.16235096433757     -2.53195653691151     -0.88812894385982
  H   -2.16338554097213     -2.53640622250675      0.85191199464942
  C   -0.66383771287172     -3.83860635107095     -0.02048228273547
  H   -0.00009576329396     -3.86343214981131     -0.90478564117695
  H   -0.00159565527238     -3.86810645365606      0.86480464939417
  C   -1.54866331324821     -5.09137852591750     -0.02454039950335
  H   -2.21566065502633     -5.06754222923563      0.85670650280453
  H   -2.21390188560211     -5.06308004636533     -0.90698317289885
  C   -0.74591079128449     -6.39455237258032     -0.02705169991384
  H   -0.09746766529753     -6.46810064030838      0.86322675815284
  H   -0.09535854644203     -6.46336002112476     -0.91616872098082
  C   1.47501358031932      2.58176221914501     -0.00306306260526
  H   2.15020691927573      2.57276812714953      0.87259681435483
  H   2.15136809509146      2.57704208316993     -0.87786463729981
  C   0.65938574152913      3.87721414753056     -0.00046301449978
  H   -0.00271963467131      3.90530148260324     -0.88508805616290
  H   -0.00436010563006      3.90076940366742      0.88306271754893
  C   1.54447234780998      5.12964055912358      0.00356977480935
  H   2.20933957684438      5.10245321321100      0.88697808251426
  H   2.21125521694950      5.10676934696528     -0.87851487327766
  C   0.74122547605507      6.43264659816834      0.00590269739604
  H   0.09043076390165      6.50019032468707      0.89452842583408
  H   0.09277169405247      6.50483207570507     -0.88406824030697
  C   4.03069830335635     -0.05077076360465     -0.00990565487543
  H   -1.40795054322173     -7.27543174372080     -0.03018837945914
  H   1.40277193028503      7.31392358321351      0.00907925129415
  C   5.45334267889019     -0.10744718916373     -0.00965664931971
  C   6.12073823223349     -1.35330044725338     -0.01199132983554
  C   7.51335606238013     -1.40349391324104     -0.01166694028421
  C   8.26212464414747     -0.22042042949275     -0.00906388459883
  C   7.61087154443297      1.01910612499160     -0.00678075865079
  C   6.21876526005230      1.08075712114970     -0.00708852834066
  H   9.35365750152563     -0.26454275752868     -0.00882461465011
  H   8.19324879132719      1.94325596203175     -0.00475626013044
  H   5.53201963331858     -2.27237468680440     -0.01402061229900
  H   5.70585930621630      2.04420713321010     -0.00532857953294
  H   8.01979855679725     -2.37134694785529     -0.01346232303544
