49
Coordinates from ORCA-job opt_EPRII
  C   -4.11308509598295      0.07363686812402     -0.01820392556644
  C   -2.82489034905190      0.05146250907903     -0.01297451716432
  C   2.80710636084240     -0.00608452509506     -0.00935956606337
  C   -1.42730365123179      0.01193600017940     -0.01251604427383
  C   -0.71499384313265     -1.24646696661764     -0.01483336252499
  C   0.67277683410247     -1.19801961586172     -0.01355556400347
  C   1.38932093742931      0.03220641439917     -0.01022718482384
  C   0.69231370345376      1.28804614466932     -0.00739989454485
  C   -0.69293007333407      1.24350010652883     -0.00866348377114
  H   1.25043927322839     -2.11495031690225     -0.01521059350443
  H   -1.27454148865031      2.15767265921860     -0.00676105184491
  C   -1.49441848590906     -2.54716668863664     -0.01870744594271
  H   -2.16460271286438     -2.53671834751170     -0.88783363732306
  H   -2.16729748105952     -2.54033190351543      0.84835590585894
  C   -0.66744466741146     -3.84189047531048     -0.02009734198764
  H   -0.01065241978104     -3.86718253588306     -0.90037087276379
  H   -0.01378149703336     -3.87097588968242      0.86239341264763
  C   -1.55435290269123     -5.10024131510171     -0.02442709349234
  H   -2.21434745970715     -5.08018785039553      0.85251396097100
  H   -2.21085932341906     -5.07657735914540     -0.90389240002808
  C   -0.74080957059213     -6.40593940337237     -0.02551862493440
  H   -0.09937309202251     -6.47139555018287      0.86073288595996
  H   -0.09518201202066     -6.46726914483541     -0.90901696675211
  C   1.48098123427709      2.58693298509713     -0.00330805034679
  H   2.14721897611570      2.57960806110068      0.87009257824108
  H   2.14847546497230      2.58434701059262     -0.87577576603333
  C   0.65704938067048      3.88387380962886     -0.00038462289908
  H   0.00256996467336      3.91237476877694     -0.88147619241316
  H   0.00051707092414      3.90716679368807      0.87932685327446
  C   1.54418607505570      5.14191091541305      0.00440355398443
  H   2.20066167480359      5.11868342014412      0.88457951881322
  H   2.20307313191300      5.12369801721035     -0.87408785664526
  C   0.73030179264659      6.44748500006854      0.00703481639898
  H   0.08486399412233      6.50704009740086      0.89039845000828
  H   0.08798198472655      6.51258098211658     -0.87820879189083
  C   4.03516171605640     -0.04866030846058     -0.01029777034043
  H   -1.39660184469805     -7.28249428842384     -0.02910667615312
  H   1.38555335842024      7.32450669796608      0.01093291024477
  C   5.46158381705689     -0.10800261948146     -0.00996915487456
  C   6.12573827051233     -1.36040994966659     -0.01218612456468
  C   7.52306179973558     -1.41476851738932     -0.01183576669922
  C   8.27829073921998     -0.22904949216397     -0.00932991759342
  C   7.62754157471807      1.01712477832240     -0.00714942177299
  C   6.23062781286539      1.08269199549207     -0.00746709735936
  H   9.36386608104643     -0.27581706937278     -0.00908920304944
  H   8.20997896817133      1.93433295052416     -0.00522164231713
  H   5.53683245283914     -2.27261647827631     -0.01413388846966
  H   5.72274796578260      2.04234142699634     -0.00581476167132
  H   8.02495205021163     -2.37842896145263     -0.01353090999929
