60
Properties=species:S:1:pos:R:3 Coordinates=T from=T ORCA-job=T opt=T pbc="F F F"
C        4.02125474      -0.10555478      -0.00528758
C        2.81858540      -0.05235857       0.00004935
C       -2.81857268       0.05174462       0.00005463
C        1.39365881      -0.00000000      -0.00000000
C        0.71496004       1.23714731       0.00000000
C       -0.67235821       1.20205920      -0.00021707
C       -1.39365881       0.00000000       0.00000000
C       -0.71482247      -1.23712525       0.00020202
C        0.67238494      -1.20222652       0.00046507
H       -1.23470689       2.12514797      -0.00088706
H        1.23454322      -2.12542028       0.00050065
C        1.50031633       2.53005151       0.00311716
H        2.14868532       2.53485273       0.88673329
C        0.69309373       3.82639693      -0.03101474
H        0.05570336       3.84508189      -0.92204165
H        0.01824476       3.86897711       0.83123458
C        1.58250505       5.07144883      -0.02765293
H        2.22392732       5.05362704       0.86021889
H        2.25787049       5.03532538      -0.88959101
C        0.79068224       6.37727214      -0.05677613
H        0.13317173       6.46177637       0.81274954
H        0.16356316       6.44067426      -0.95026758
C       -1.50031502      -2.53007195      -0.00110833
H       -2.16955006      -2.52501889       0.86666584
H       -2.16975136      -2.52213099      -0.86866815
C       -0.69312157      -3.82664773      -0.00365726
H       -0.03555229      -3.85513816      -0.87975215
H       -0.03810729      -3.85980077       0.87409801
C       -1.58259775      -5.07153951      -0.00896294
H       -2.24424241      -5.04695308       0.86394885
H       -2.23813349      -5.04235002      -0.88616952
C       -0.79053500      -6.37763151      -0.00955651
H       -0.15240119      -6.45467848       0.87499759
H       -0.14390901      -6.44878330      -0.88840889
C       -4.02114776       0.10704308      -0.00284190
H        1.45456748       7.24381114      -0.05574124
H       -1.45454080      -7.24404448      -0.01565383
C       -5.45114776       0.10704308      -0.00284190
C       -6.12984653       1.34419039      -0.00284190
C       -7.51716477       1.30910227      -0.00305897
C       -8.23846537       0.10704308      -0.00284190
C       -7.55962903      -1.13008217      -0.00263988
C       -6.17242162      -1.09518345      -0.00237683
H       -9.30069942       0.10704308      -0.00284190
H       -8.07349662      -2.01934224      -0.00256728
H       -5.61597893       2.23345045      -0.00291450
H       -5.64596033      -2.03645121      -0.00210977
H       -8.04362607       2.25037004      -0.00332603
C        5.44541257      -0.23425549      -0.01580392
C        6.23277873       0.93670345      -0.00713313
C        7.61126988       0.77689826      -0.01750601
C        8.22134279      -0.48511547      -0.03630209
C        7.43384034      -1.65603770      -0.04517363
C        6.05544223      -1.49643056      -0.03484963
H        9.27923716      -0.58071706      -0.04411385
H        7.86550504      -2.58787569      -0.05884549
H        5.80111403       1.86854144       0.00653873
H        5.44634223      -2.38642925      -0.04163958
H        8.22036987       1.66689695      -0.01071606
H        2.19043590       2.51425578      -0.84778858
