96
Properties=species:S:1:pos:R:3 Coordinates=T from=T ORCA-job=T opt=T pbc="F F F"
C        5.56538183       0.07508150       0.00147153
C        1.42000000       0.00000000       0.00000000
C        2.05013258      -1.23522065       0.00821590
C        3.45221279      -1.15675945       0.00846318
C        4.13558345       0.08095757       0.00097721
C        3.42203732       1.31005314      -0.00703614
C        2.01470061       1.24183503      -0.00745004
H        4.05078872      -2.06936683       0.01451527
H        1.41533836       2.15373755      -0.01356714
C        1.26428375      -2.53562615       0.01645437
H        0.59017499      -2.53500248      -0.86018086
H        0.59420912      -2.52622776       0.89615700
C        2.08524596      -3.82755796       0.02122021
H        2.74811281      -3.85214119      -0.86391986
H        2.74987723      -3.84448027       0.90522009
C        1.21013144      -5.08610516       0.02772493
H        0.54395908      -5.06210278       0.91069623
H        0.54350016      -5.07083290      -0.85508807
C        2.02182953      -6.38343943       0.03392770
H        2.67237565      -6.44525607       0.92370636
H        2.67232070      -6.45377635      -0.85526645
C        4.17677472       2.62549853      -0.01501013
H        4.85370288       2.63954620       0.85975208
H        4.85263807       2.62951981      -0.89071765
C        3.33505990       3.90399366      -0.02189497
H        2.67142025       3.91188352      -0.90687264
H        2.67144675       3.92143706       0.86296687
C        4.19185410       5.17532576      -0.02890266
H        4.85822832       5.16989497       0.85416386
H        4.85864628       5.15989749      -0.91153780
C        3.36177089       6.46085407      -0.03637933
H        2.70995165       6.52264259       0.85250630
H        2.71073677       6.51281373      -0.92646130
C        6.78734625       0.06029030      -0.00030247
H        1.36669085      -7.26951266       0.03816824
H        4.00396077       7.35634668      -0.04103120
C        8.21579546       0.03996010      -0.00020691
C        8.91794761      -1.18508174      -0.00038316
C       10.31242636      -1.19960702      -0.00024500
C       11.03297128      -0.00000000       0.00000000
C       10.34721199       1.21996029       0.00011486
C        8.95293169       1.24431797      -0.00000000
H       12.12572547      -0.01613815       0.00013894
H       10.90341895       2.16064032       0.00042829
H        8.35440423      -2.12008427      -0.00077671
H        8.41604812       2.19500714       0.00026879
H       10.84218233      -2.15544908      -0.00047968
C        0.00000000       0.00000000       0.00000000
C       -1.28457999       0.01288731       0.00509851
C       -6.90620222      -0.06527141       0.00459285
C       -2.67792276       0.01972657       0.00481680
C       -3.42047677       1.25709723       0.00000000
C       -4.80329010       1.17432481       0.00019831
C       -5.49061340      -0.06882270       0.00483987
C       -4.76397117      -1.30429584       0.00968362
C       -3.38359525      -1.22457238       0.00943204
H       -5.40699860       2.08145379      -0.00331730
H       -2.77617497      -2.12891369       0.01285206
C       -2.67381512       2.57202044      -0.00489955
H       -1.99233526       2.57204440      -0.87506494
H       -1.99310360       2.57891988       0.86584851
C       -3.51903062       3.84773388      -0.01021007
H       -4.18236167       3.85707902      -0.89566329
H       -4.18290960       3.86408804       0.87473019
C       -2.66174761       5.11894822      -0.01490407
H       -1.99519302       5.11100780       0.86749407
H       -1.99505161       5.10436417      -0.89710595
C       -3.49247449       6.40390728      -0.01980909
H       -4.14363344       6.46476969       0.86971766
H       -4.14363722       6.45796005      -0.90977766
C       -5.51902654      -2.61812840       0.01451776
H       -6.19540003      -2.62271438       0.88976943
H       -6.19447235      -2.62960890      -0.86139588
C       -4.67490837      -3.89497982       0.01990604
H       -4.01116837      -3.90926924      -0.86436264
H       -4.01155976      -3.90210225       0.90455801
C       -5.53069995      -5.16698543       0.02476654
H       -6.19699555      -5.15438474       0.90795087
H       -6.19706956      -5.16108606      -0.85843478
C       -4.69754229      -6.45050610       0.02959854
H       -4.04597160      -6.50213151       0.91900951
H       -4.04641308      -6.50912154      -0.85969504
C       -8.13172705      -0.04917597       0.00217916
H       -2.84972828       7.29878398      -0.02324997
H       -5.33839065      -7.34676239       0.03329624
C       -9.55541615      -0.03214398       0.00139674
C      -10.25810950       1.19402240      -0.00662093
C      -11.65151784       1.20384332      -0.00726987
C      -12.36622107       0.00000000      -0.00000000
C      -11.67974805      -1.22026674       0.00793387
C      -10.28653443      -1.24165396       0.00861118
H      -13.45889350       0.01310366      -0.00050628
H      -12.23521235      -2.16083158       0.01367201
H       -9.69610071       2.12963789      -0.01234889
H       -9.74595417      -2.18996224       0.01484427
H      -12.18574452       2.15670863      -0.01354878
